@<TRIPOS>MOLECULE
LIG
43 45
SMALL
USER_CHARGES
@<TRIPOS>ATOM
      1 N1           24.549     41.410      2.958 aa            1 LIG       -0.489896
      2 C1           24.821     42.567      2.092 ab            1 LIG        0.057441
      3 C2           25.901     43.484      2.707 ad            1 LIG       -0.135752
      4 C3           27.201     42.720      3.016 ae            1 LIG        0.705052
      5 C4           26.899     41.403      3.743 af            1 LIG       -0.135752
      6 C5           25.771     40.593      3.075 ah            1 LIG        0.057441
      7 C6           19.680     40.513      5.564 ai            1 LIG        0.013005
      8 C7           19.388     40.806      6.910 aj            1 LIG        0.053909
      9 C8           18.090     40.606      7.405 ak            1 LIG        0.103521
     10 C9           17.098     40.087      6.571 an            1 LIG       -0.198031
     11 C10          17.389     39.777      5.245 ao            1 LIG       -0.135885
     12 C11          18.661     40.016      4.743 ap            1 LIG       -0.176981
     13 C12          20.997     40.760      4.963 aq            1 LIG       -0.117538
     14 C13          21.177     41.813      4.053 av            1 LIG        0.246073
     15 N2           22.335     42.047      3.413 aw            1 LIG       -0.632841
     16 C14          23.373     41.218      3.687 ax            1 LIG        0.784122
     17 N3           23.313     40.183      4.578 ay            1 LIG       -0.652261
     18 C15          22.134     39.963      5.201 az            1 LIG        0.612948
     19 Cl1          17.678     41.059      9.021 bb            1 LIG       -0.106379
     20 Cl2          20.610     41.501      7.930 bc            1 LIG       -0.117908
     21 N4           22.082     38.885      6.076 bd            1 LIG       -0.939116
     22 N5           28.096     43.610      3.924 bf            1 LIG       -1.194359
     23 C16          27.916     42.422      1.732 bg            1 LIG       -0.388071
     24 H1           25.139     42.207      1.112 bh            1 LIG        0.084676
     25 H2           23.914     43.145      1.906 bj            1 LIG        0.084676
     26 H3           25.486     43.917      3.620 bk            1 LIG        0.043259
     27 H4           26.095     44.319      2.032 bl            1 LIG        0.043259
     28 H5           26.595     41.600      4.773 bm            1 LIG        0.043259
     29 H6           27.797     40.785      3.804 bn            1 LIG        0.043259
     30 H7           26.072     40.256      2.082 bo            1 LIG        0.084676
     31 H8           25.573     39.685      3.648 bp            1 LIG        0.084676
     32 H9           16.100     39.934      6.955 bq            1 LIG        0.181187
     33 H10          16.617     39.379      4.601 bs            1 LIG        0.171637
     34 H11          18.861     39.788      3.705 bt            1 LIG        0.164135
     35 H12          28.305     44.480      3.455 bu            1 LIG        0.505638
     36 H13          27.284     41.798      1.100 bv            1 LIG        0.114239
     37 H14          28.846     41.897      1.947 bw            1 LIG        0.114239
     38 H15          28.138     43.356      1.215 bx            1 LIG        0.114239
     39 H16          27.612     43.807      4.790 by            1 LIG        0.505638
     40 H17          21.261     38.696      6.630 bz            1 LIG        0.417510
     41 H18          20.358     42.473      3.808 cb            1 LIG        0.063906
     42 H19          22.906     38.337      6.264 ci            1 LIG        0.417510
     43 H20          28.962     43.131      4.130 cj            1 LIG        0.505638
@<TRIPOS>BOND
        1  1  2  1
        2  1  6  1
        3  1  16  1
        4  2  3  1
        5  2  24  1
        6  2  25  1
        7  3  4  1
        8  3  26  1
        9  3  27  1
        10  4  5  1
        11  4  22  1
        12  4  23  1
        13  5  6  1
        14  5  28  1
        15  5  29  1
        16  6  30  1
        17  6  31  1
        18  7  8  2
        19  7  12  1
        20  7  13  1
        21  8  9  1
        22  8  20  1
        23  9  10  2
        24  9  19  1
        25  10  11  1
        26  10  32  1
        27  11  12  2
        28  11  33  1
        29  12  34  1
        30  13  14  2
        31  13  18  1
        32  14  15  1
        33  14  41  1
        34  15  16  2
        35  16  17  1
        36  17  18  2
        37  18  21  1
        38  21  40  1
        39  21  42  1
        40  22  35  1
        41  22  39  1
        42  22  43  1
        43  23  36  1
        44  23  37  1
        45  23  38  1
@<TRIPOS>SUBSTRUCTURE
       1 LIG             1 RESIDUE    0 **** ROOT      0
