@<TRIPOS>MOLECULE
LIG
47 50
SMALL
USER_CHARGES
@<TRIPOS>ATOM
      1 C1           93.278     49.790    267.685 aa            1 LIG       -0.001206
      2 C2           92.564     47.328    266.484 ab            1 LIG       -0.301549
      3 C3           91.611     48.324    266.677 ad            1 LIG        0.283321
      4 C4           91.969     49.519    267.281 ae            1 LIG       -0.240243
      5 C5           93.894     47.529    266.924 af            1 LIG        0.297642
      6 C6           94.272     48.769    267.519 ah            1 LIG        0.247292
      7 N1           95.559     48.959    267.944 ai            1 LIG       -0.480764
      8 C7           96.451     47.953    267.760 aj            1 LIG        0.168489
      9 C8           96.067     46.738    267.208 ak            1 LIG        0.173464
     10 N2           94.799     46.518    266.783 an            1 LIG       -0.483309
     11 C9           93.596     51.095    268.318 ao            1 LIG        0.085329
     12 C10          92.835     51.585    269.380 ap            1 LIG       -0.175662
     13 C11          93.146     52.802    269.977 aq            1 LIG       -0.132053
     14 C12          94.219     53.548    269.513 av            1 LIG       -0.201894
     15 C13          94.965     53.103    268.406 aw            1 LIG        0.274202
     16 C14          94.662     51.866    267.841 ax            1 LIG       -0.245054
     17 N3           90.270     48.113    266.314 ay            1 LIG       -0.562032
     18 C15          89.713     47.337    265.284 az            1 LIG        0.150123
     19 C16          90.413     47.120    264.093 bb            1 LIG        0.177177
     20 N4           89.902     46.446    263.035 bc            1 LIG       -0.467537
     21 C17          88.655     45.941    263.160 bd            1 LIG        0.239286
     22 C18          87.882     46.085    264.315 bf            1 LIG       -0.272287
     23 C19          88.420     46.797    265.398 bg            1 LIG       -0.025469
     24 S1           87.476     46.885    266.922 bh            1 LIG        0.922388
     25 O1           86.129     46.400    266.664 bj            1 LIG       -0.548127
     26 O2           87.682     48.228    267.491 bk            1 LIG       -0.548127
     27 C20          88.369     45.625    268.012 bl            1 LIG       -0.370646
     28 O3           95.969     53.807    267.800 bm            1 LIG       -0.393864
     29 C21          96.347     55.073    268.331 bn            1 LIG        0.648324
     30 F1           97.310     55.540    267.540 bo            1 LIG       -0.167019
     31 F2           95.361     55.945    268.326 bp            1 LIG       -0.167019
     32 F3           96.784     54.962    269.556 bq            1 LIG       -0.167019
     33 H1           92.283     46.384    266.048 bs            1 LIG        0.171181
     34 H2           91.207     50.278    267.432 bt            1 LIG        0.160792
     35 H3           97.474     48.150    268.048 bu            1 LIG        0.064714
     36 H4           96.775     45.940    267.045 bv            1 LIG        0.064103
     37 H5           91.998     51.015    269.758 bw            1 LIG        0.153415
     38 H6           92.560     53.175    270.809 bx            1 LIG        0.161123
     39 H7           94.421     54.492    269.989 by            1 LIG        0.168795
     40 H8           95.245     51.527    266.998 bz            1 LIG        0.175198
     41 H9           89.569     48.588    266.869 cb            1 LIG        0.382570
     42 H10          91.409     47.521    263.974 ci            1 LIG        0.085635
     43 H11          88.268     45.384    262.320 cj            1 LIG        0.078539
     44 H12          86.902     45.635    264.384 ck            1 LIG        0.172932
     45 H13          87.843     45.508    268.952 cm            1 LIG        0.148282
     46 H14          89.388     45.974    268.166 cn            1 LIG        0.148282
     47 H15          88.375     44.672    267.480 ct            1 LIG        0.148282
@<TRIPOS>BOND
        1  1  4  2
        2  1  6  1
        3  1  11  1
        4  2  3  2
        5  2  5  1
        6  2  33  1
        7  3  4  1
        8  3  17  1
        9  4  34  1
        10  5  6  2
        11  5  10  1
        12  6  7  1
        13  7  8  2
        14  8  9  1
        15  8  35  1
        16  9  10  2
        17  9  36  1
        18  11  12  2
        19  11  16  1
        20  12  13  1
        21  12  37  1
        22  13  14  2
        23  13  38  1
        24  14  15  1
        25  14  39  1
        26  15  16  2
        27  15  28  1
        28  16  40  1
        29  17  18  1
        30  17  41  1
        31  18  19  2
        32  18  23  1
        33  19  20  1
        34  19  42  1
        35  20  21  2
        36  21  22  1
        37  21  43  1
        38  22  23  2
        39  22  44  1
        40  23  24  1
        41  24  25  2
        42  24  26  2
        43  24  27  1
        44  27  45  1
        45  27  46  1
        46  27  47  1
        47  28  29  1
        48  29  30  1
        49  29  31  1
        50  29  32  1
@<TRIPOS>SUBSTRUCTURE
       1 LIG             1 RESIDUE    0 **** ROOT      0
