@<TRIPOS>MOLECULE
LIG
55 60
SMALL
USER_CHARGES
@<TRIPOS>ATOM
      1 C1           -4.769     -2.785     12.343 aa            1 LIG       -0.063571
      2 C2           -5.385     -4.138     12.646 ab            1 LIG        0.228347
      3 O1           -4.459     -4.973     13.342 ad            1 LIG       -0.468557
      4 C3           -4.377     -4.862     14.774 ae            1 LIG        0.218354
      5 C4           -4.482     -3.475     15.448 af            1 LIG        0.047406
      6 N1           -3.893     -2.326     14.770 ah            1 LIG       -0.380986
      7 C5           -4.574     -1.936     13.565 ai            1 LIG        0.080984
      8 C6           -2.484     -2.110     14.852 aj            1 LIG        0.260594
      9 C7           -1.694     -2.876     15.725 ak            1 LIG       -0.210030
     10 C8           -0.339     -2.634     15.847 an            1 LIG       -0.211514
     11 C9            0.263     -1.617     15.114 ao            1 LIG        0.268045
     12 N2            1.645     -1.393     15.352 ap            1 LIG       -0.570986
     13 C10           2.547     -0.449     14.777 aq            1 LIG        0.445397
     14 N3            2.162      0.381     13.770 av            1 LIG       -0.557728
     15 C11           3.091      1.236     13.237 aw            1 LIG        0.211406
     16 C12           4.397      1.283     13.697 ax            1 LIG       -0.118942
     17 N4            4.732      0.498     14.755 ay            1 LIG        0.061175
     18 C13           5.900      0.389     15.458 az            1 LIG       -0.164533
     19 C14           5.614     -0.548     16.478 bb            1 LIG        0.030066
     20 N5            4.416     -1.078     16.329 bc            1 LIG       -0.518071
     21 C15           3.852     -0.400     15.322 bd            1 LIG        0.172587
     22 C16           2.611      2.133     12.118 bf            1 LIG        0.111445
     23 C17           3.541      2.629     11.180 bg            1 LIG       -0.200853
     24 C18           3.148      3.457     10.124 bh            1 LIG       -0.191247
     25 C19           1.804      3.809     10.021 bj            1 LIG        0.061492
     26 C20           1.001      4.608      9.134 bk            1 LIG       -0.012760
     27 N6           -0.241      4.615      9.521 bl            1 LIG       -0.403801
     28 N7           -0.342      3.866     10.619 bm            1 LIG       -0.020592
     29 C21           0.881      3.330     10.977 bn            1 LIG        0.071125
     30 C22           1.248      2.484     12.037 bo            1 LIG       -0.252951
     31 C23          -0.490     -0.852     14.221 bp            1 LIG       -0.211514
     32 C24          -1.844     -1.103     14.095 bq            1 LIG       -0.210030
     33 H1           -5.465     -2.211     11.731 bs            1 LIG        0.025557
     34 H2           -3.853     -2.832     11.762 bt            1 LIG        0.025557
     35 H3           -5.611     -4.593     11.681 bu            1 LIG        0.013534
     36 H4           -6.342     -4.033     13.167 bv            1 LIG        0.013534
     37 H5           -3.441     -5.326     15.090 bw            1 LIG        0.010316
     38 H6           -5.178     -5.479     15.189 bx            1 LIG        0.010316
     39 H7           -4.142     -3.535     16.485 by            1 LIG        0.042665
     40 H8           -5.539     -3.226     15.624 bz            1 LIG        0.042665
     41 H9           -4.193     -0.992     13.189 cb            1 LIG        0.040329
     42 H10          -5.559     -1.607     13.932 ci            1 LIG        0.040329
     43 H11          -2.145     -3.654     16.321 cj            1 LIG        0.140189
     44 H12           0.242     -3.228     16.531 ck            1 LIG        0.156108
     45 H13           2.046     -1.973     16.061 cm            1 LIG        0.359725
     46 H14           5.149      1.954     13.319 cn            1 LIG        0.119781
     47 H15           6.764      0.994     15.260 ct            1 LIG        0.146461
     48 H16           6.264     -0.829     17.279 cw            1 LIG        0.145775
     49 H17           4.578      2.352     11.262 da            1 LIG        0.137547
     50 H18           3.874      3.811      9.411 db            1 LIG        0.142337
     51 H19           1.314      5.154      8.267 dc            1 LIG        0.148737
     52 H20          -1.225      3.757     11.077 dd            1 LIG        0.283543
     53 H21           0.535      2.130     12.751 de            1 LIG        0.158940
     54 H22          -0.051     -0.069     13.650 df            1 LIG        0.156108
     55 H23          -2.420     -0.477     13.421 dg            1 LIG        0.140189
@<TRIPOS>BOND
        1  1  2  1
        2  1  7  1
        3  1  33  1
        4  1  34  1
        5  2  3  1
        6  2  35  1
        7  2  36  1
        8  3  4  1
        9  4  5  1
        10  4  37  1
        11  4  38  1
        12  5  6  1
        13  5  39  1
        14  5  40  1
        15  6  7  1
        16  6  8  1
        17  7  41  1
        18  7  42  1
        19  8  9  2
        20  8  32  1
        21  9  10  1
        22  9  43  1
        23  10  11  2
        24  10  44  1
        25  11  12  1
        26  11  31  1
        27  12  13  1
        28  12  45  1
        29  13  14  2
        30  13  21  1
        31  14  15  1
        32  15  16  2
        33  15  22  1
        34  16  17  1
        35  16  46  1
        36  17  18  1
        37  17  21  1
        38  18  19  2
        39  18  47  1
        40  19  20  1
        41  19  48  1
        42  20  21  2
        43  22  23  2
        44  22  30  1
        45  23  24  1
        46  23  49  1
        47  24  25  2
        48  24  50  1
        49  25  26  1
        50  25  29  1
        51  26  27  2
        52  26  51  1
        53  27  28  1
        54  28  29  1
        55  28  52  1
        56  29  30  2
        57  30  53  1
        58  31  32  2
        59  31  54  1
        60  32  55  1
@<TRIPOS>SUBSTRUCTURE
       1 LIG             1 RESIDUE    0 **** ROOT      0
