@<TRIPOS>MOLECULE
LIG
49 53
SMALL
USER_CHARGES
@<TRIPOS>ATOM
      1 C1           -6.402     12.346    -12.015 aa            1 LIG        0.006849
      2 C2           -6.582     11.778    -10.743 ab            1 LIG       -0.240641
      3 C3           -7.735     10.566    -13.040 ad            1 LIG       -0.202666
      4 C4           -6.997     11.755    -13.136 ae            1 LIG       -0.177624
      5 C5           -7.827      9.994    -11.763 af            1 LIG        0.073302
      6 C6           -7.268     10.602    -10.620 ah            1 LIG        0.057055
      7 C7           -7.623      9.736     -9.525 ai            1 LIG        0.100687
      8 N1           -8.274      8.714     -9.991 aj            1 LIG       -0.415455
      9 N2           -8.413      8.845    -11.304 ak            1 LIG       -0.020063
     10 C8           -7.341      9.893     -8.034 an            1 LIG        0.034875
     11 N3           -4.554     13.841    -11.338 ao            1 LIG       -0.346045
     12 C9           -5.601     13.649    -12.177 ap            1 LIG        0.676206
     13 O1           -5.920     14.481    -13.020 aq            1 LIG       -0.599977
     14 C10          -5.959     10.486     -7.738 av            1 LIG        0.092704
     15 C11          -4.808      9.764     -8.057 aw            1 LIG       -0.195361
     16 C12          -3.551     10.310     -7.807 ax            1 LIG       -0.194606
     17 C13          -3.441     11.584     -7.236 ay            1 LIG        0.107125
     18 C14          -4.591     12.301     -6.913 az            1 LIG       -0.194606
     19 C15          -5.847     11.754     -7.158 bb            1 LIG       -0.195361
     20 C16          -2.098     12.174     -6.969 bc            1 LIG        0.034875
     21 C17          -1.767     13.417     -6.437 bd            1 LIG       -0.192690
     22 N4           -0.427     13.477     -6.390 bf            1 LIG        0.227795
     23 N5            0.174     12.405     -6.825 bg            1 LIG       -0.437794
     24 C18          -0.804     11.594     -7.201 bh            1 LIG       -0.016354
     25 C19           0.395     14.587     -5.913 bj            1 LIG       -0.204415
     26 C20          -4.110     13.120    -10.156 bk            1 LIG       -0.056134
     27 C21          -3.155     14.261     -9.925 bl            1 LIG        0.260243
     28 C22          -3.769     15.045    -11.098 bm            1 LIG       -0.056134
     29 F1           -3.345     14.800     -8.726 bn            1 LIG       -0.178644
     30 F2           -1.881     13.929    -10.072 bo            1 LIG       -0.178644
     31 H1           -6.237     12.238     -9.883 bp            1 LIG        0.148057
     32 H2           -8.197     10.120    -13.901 bq            1 LIG        0.147257
     33 H3           -6.878     12.219    -14.108 bs            1 LIG        0.170490
     34 H4           -8.905      8.143    -11.837 bt            1 LIG        0.288374
     35 H5           -8.107     10.540     -7.598 bu            1 LIG        0.033708
     36 H6           -7.447      8.932     -7.533 bv            1 LIG        0.033708
     37 H7           -4.889      8.781     -8.502 bw            1 LIG        0.136983
     38 H8           -2.663      9.745     -8.057 bx            1 LIG        0.138131
     39 H9           -4.509     13.283     -6.474 by            1 LIG        0.138131
     40 H10          -6.731     12.315     -6.905 bz            1 LIG        0.136983
     41 H11          -2.372     14.243     -6.098 cb            1 LIG        0.150682
     42 H12          -0.608     10.615     -7.615 ci            1 LIG        0.143121
     43 H13          -0.229     15.413     -5.572 cj            1 LIG        0.105678
     44 H14           1.043     14.945     -6.717 ck            1 LIG        0.105678
     45 H15           1.024     14.253     -5.084 cm            1 LIG        0.105678
     46 H16          -3.714     12.107    -10.213 cn            1 LIG        0.112208
     47 H17          -4.921     13.261     -9.479 ct            1 LIG        0.112208
     48 H18          -4.537     15.757    -10.820 cw            1 LIG        0.112208
     49 H19          -3.055     15.423    -11.825 da            1 LIG        0.112208
@<TRIPOS>BOND
        1  1  2  2
        2  1  4  1
        3  1  12  1
        4  2  6  1
        5  2  31  1
        6  3  4  2
        7  3  5  1
        8  3  32  1
        9  4  33  1
        10  5  6  2
        11  5  9  1
        12  6  7  1
        13  7  8  2
        14  7  10  1
        15  8  9  1
        16  9  34  1
        17  10  14  1
        18  10  35  1
        19  10  36  1
        20  11  12  1
        21  11  26  1
        22  11  28  1
        23  12  13  2
        24  14  15  2
        25  14  19  1
        26  15  16  1
        27  15  37  1
        28  16  17  2
        29  16  38  1
        30  17  18  1
        31  17  20  1
        32  18  19  2
        33  18  39  1
        34  19  40  1
        35  20  21  2
        36  20  24  1
        37  21  22  1
        38  21  41  1
        39  22  23  1
        40  22  25  1
        41  23  24  2
        42  24  42  1
        43  25  43  1
        44  25  44  1
        45  25  45  1
        46  26  27  1
        47  26  46  1
        48  26  47  1
        49  27  28  1
        50  27  29  1
        51  27  30  1
        52  28  48  1
        53  28  49  1
@<TRIPOS>SUBSTRUCTURE
       1 LIG             1 RESIDUE    0 **** ROOT      0
