@<TRIPOS>MOLECULE
LIG
44 47
SMALL
USER_CHARGES
@<TRIPOS>ATOM
      1 C1           24.356     33.611     52.845 aa            1 LIG        0.003986
      2 C2           23.018     33.498     52.510 ab            1 LIG        0.017054
      3 N1           22.377     33.260     53.689 ad            1 LIG       -0.218030
      4 C3           23.343     33.230     54.663 ae            1 LIG        0.232779
      5 N2           24.537     33.432     54.145 af            1 LIG       -0.504679
      6 C4           23.080     32.951     56.108 ah            1 LIG        0.104693
      7 C5           24.130     32.987     57.040 ai            1 LIG       -0.188504
      8 C6           23.911     32.633     58.368 aj            1 LIG       -0.135416
      9 C7           22.643     32.230     58.776 ak            1 LIG       -0.197946
     10 C8           21.579     32.213     57.876 an            1 LIG        0.083744
     11 C9           20.188     31.787     58.339 ao            1 LIG        0.032146
     12 N3           19.860     30.403     57.960 ap            1 LIG        0.045906
     13 N4           19.350     30.230     56.672 aq            1 LIG       -0.386388
     14 C10          19.047     29.066     56.190 av            1 LIG        0.213482
     15 C11          19.324     27.926     57.052 aw            1 LIG       -0.096959
     16 C12          19.848     28.084     58.290 ax            1 LIG       -0.194072
     17 C13          20.166     29.388     58.844 ay            1 LIG        0.589378
     18 O1           20.646     29.527     59.973 az            1 LIG       -0.655750
     19 C14          18.426     28.896     54.852 bb            1 LIG        0.117788
     20 C15          18.246     27.635     54.257 bc            1 LIG       -0.265549
     21 C16          17.575     27.508     53.040 bd            1 LIG        0.225011
     22 F1           17.379     26.284     52.503 bf            1 LIG       -0.159740
     23 C17          17.089     28.636     52.385 bg            1 LIG       -0.274276
     24 C18          17.273     29.895     52.947 bh            1 LIG        0.225011
     25 F2           16.795     30.997     52.325 bj            1 LIG       -0.159740
     26 C19          17.935     30.023     54.166 bk            1 LIG       -0.265549
     27 C20          21.800     32.588     56.548 bl            1 LIG       -0.261235
     28 C21          22.252     33.627     51.181 bm            1 LIG       -0.215211
     29 H1           21.385     33.130     53.818 bn            1 LIG        0.297757
     30 H2           25.127     33.271     56.733 bo            1 LIG        0.166011
     31 H3           24.731     32.653     59.072 bp            1 LIG        0.146486
     32 H4           22.488     31.926     59.800 bq            1 LIG        0.140371
     33 H5           20.088     31.947     59.415 bs            1 LIG        0.078575
     34 H6           19.450     32.462     57.904 bt            1 LIG        0.078575
     35 H7           19.118     26.912     56.741 bu            1 LIG        0.120878
     36 H8           20.042     27.217     58.903 bv            1 LIG        0.138256
     37 H9           18.602     26.727     54.716 bw            1 LIG        0.185528
     38 H10          16.564     28.532     51.448 bx            1 LIG        0.191163
     39 H11          18.037     31.013     54.584 by            1 LIG        0.185528
     40 H12          20.973     32.555     55.856 bz            1 LIG        0.166490
     41 H13          25.089     33.821     52.079 cb            1 LIG        0.140881
     42 H14          21.189     33.461     51.356 ci            1 LIG        0.083856
     43 H15          22.400     34.626     50.771 cj            1 LIG        0.083856
     44 H16          22.623     32.886     50.473 ck            1 LIG        0.083856
@<TRIPOS>BOND
        1  1  2  2
        2  1  5  1
        3  1  41  1
        4  2  28  1
        5  2  3  1
        6  3  29  1
        7  3  4  1
        8  4  6  1
        9  4  5  2
        10  6  7  2
        11  6  27  1
        12  7  8  1
        13  7  30  1
        14  8  9  2
        15  8  31  1
        16  9  10  1
        17  9  32  1
        18  10  11  1
        19  10  27  2
        20  11  12  1
        21  11  33  1
        22  11  34  1
        23  12  13  1
        24  12  17  1
        25  13  14  2
        26  14  15  1
        27  14  19  1
        28  15  16  2
        29  15  35  1
        30  16  17  1
        31  16  36  1
        32  17  18  2
        33  19  20  2
        34  19  26  1
        35  20  21  1
        36  20  37  1
        37  21  22  1
        38  21  23  2
        39  23  24  1
        40  23  38  1
        41  24  25  1
        42  24  26  2
        43  26  39  1
        44  27  40  1
        45  28  42  1
        46  28  43  1
        47  28  44  1
@<TRIPOS>SUBSTRUCTURE
       1 LIG             1 RESIDUE    0 **** ROOT      0
