@<TRIPOS>MOLECULE
LIG
47 50
SMALL
USER_CHARGES
@<TRIPOS>ATOM
      1 C1           93.289     49.794    267.664 aa            1 LIG       -0.000111
      2 C2           92.561     47.340    266.481 ab            1 LIG       -0.311359
      3 C3           91.608     48.333    266.671 ad            1 LIG        0.280870
      4 C4           91.971     49.529    267.272 ae            1 LIG       -0.245096
      5 C5           93.894     47.534    266.904 af            1 LIG        0.294565
      6 C6           94.277     48.774    267.498 ah            1 LIG        0.244777
      7 N1           95.563     48.963    267.932 ai            1 LIG       -0.482031
      8 C7           96.450     47.955    267.746 aj            1 LIG        0.165402
      9 C8           96.065     46.747    267.177 ak            1 LIG        0.172341
     10 N2           94.799     46.528    266.755 an            1 LIG       -0.490926
     11 C9           93.599     51.097    268.315 ao            1 LIG        0.065599
     12 C10          94.575     51.946    267.779 ap            1 LIG       -0.168219
     13 C11          94.835     53.168    268.411 aq            1 LIG       -0.213398
     14 C12          94.129     53.522    269.560 av            1 LIG        0.268182
     15 C13          93.179     52.660    270.106 aw            1 LIG       -0.213398
     16 C14          92.914     51.467    269.467 ax            1 LIG       -0.168219
     17 N3           90.272     48.126    266.315 ay            1 LIG       -0.561584
     18 C15          89.715     47.346    265.288 az            1 LIG        0.147597
     19 C16          90.420     47.127    264.096 bb            1 LIG        0.179512
     20 N4           89.913     46.436    263.046 bc            1 LIG       -0.465007
     21 C17          88.662     45.937    263.167 bd            1 LIG        0.240907
     22 C18          87.891     46.094    264.316 bf            1 LIG       -0.271560
     23 C19          88.422     46.802    265.401 bg            1 LIG       -0.024312
     24 S1           87.481     46.895    266.925 bh            1 LIG        0.918619
     25 O1           86.140     46.372    266.669 bj            1 LIG       -0.547690
     26 O2           87.651     48.245    267.479 bk            1 LIG       -0.547690
     27 C20          88.382     45.676    268.045 bl            1 LIG       -0.370207
     28 O3           94.390     54.743    270.157 bm            1 LIG       -0.359642
     29 C21          93.729     55.057    271.403 bn            1 LIG        0.066402
     30 H1           92.293     46.403    266.029 bo            1 LIG        0.161664
     31 H2           91.215     50.285    267.449 bp            1 LIG        0.158271
     32 H3           97.471     48.143    268.044 bq            1 LIG        0.058099
     33 H4           96.773     45.945    267.025 bs            1 LIG        0.059307
     34 H5           95.120     51.681    266.891 bt            1 LIG        0.157000
     35 H6           95.594     53.838    267.978 bu            1 LIG        0.153467
     36 H7           92.659     52.913    271.023 bv            1 LIG        0.153467
     37 H8           92.174     50.810    269.885 bw            1 LIG        0.157000
     38 H9           89.589     48.620    266.880 bx            1 LIG        0.373897
     39 H10          91.422     47.507    263.971 by            1 LIG        0.090490
     40 H11          88.278     45.385    262.324 bz            1 LIG        0.079640
     41 H12          86.904     45.655    264.363 cb            1 LIG        0.179594
     42 H13          87.870     45.633    269.000 ci            1 LIG        0.148579
     43 H14          89.407     46.012    268.181 cj            1 LIG        0.148579
     44 H15          88.364     44.692    267.575 ck            1 LIG        0.148579
     45 H16          94.030     56.009    271.745 cm            1 LIG        0.056014
     46 H17          94.003     54.316    272.168 cn            1 LIG        0.056014
     47 H18          92.636     55.036    271.268 ct            1 LIG        0.056014
@<TRIPOS>BOND
        1  1  4  2
        2  1  6  1
        3  1  11  1
        4  2  3  2
        5  2  5  1
        6  2  30  1
        7  3  4  1
        8  3  17  1
        9  4  31  1
        10  5  6  2
        11  5  10  1
        12  6  7  1
        13  7  8  2
        14  8  9  1
        15  8  32  1
        16  9  10  2
        17  9  33  1
        18  11  12  2
        19  11  16  1
        20  12  13  1
        21  12  34  1
        22  13  14  2
        23  13  35  1
        24  14  15  1
        25  14  28  1
        26  15  16  2
        27  15  36  1
        28  16  37  1
        29  17  18  1
        30  17  38  1
        31  18  19  2
        32  18  23  1
        33  19  20  1
        34  19  39  1
        35  20  21  2
        36  21  22  1
        37  21  40  1
        38  22  23  2
        39  22  41  1
        40  23  24  1
        41  24  25  2
        42  24  26  2
        43  24  27  1
        44  27  42  1
        45  27  43  1
        46  27  44  1
        47  28  29  1
        48  29  45  1
        49  29  46  1
        50  29  47  1
@<TRIPOS>SUBSTRUCTURE
       1 LIG             1 RESIDUE    0 **** ROOT      0
