@<TRIPOS>MOLECULE
LIG
38 40
SMALL
USER_CHARGES
@<TRIPOS>ATOM
      1 O1           27.827      1.564    -11.061 aa            1 LIG       -0.684234
      2 C1           27.120      0.520    -11.709 ab            1 LIG        0.205327
      3 C2           26.441      0.932    -13.032 ad            1 LIG        0.113154
      4 C3           25.057      0.313    -13.046 ae            1 LIG       -0.012341
      5 C4           24.803     -0.038    -11.595 af            1 LIG       -0.032886
      6 C5           25.982     -0.005    -10.839 ah            1 LIG       -0.028858
      7 C6           25.976     -0.411     -9.486 ai            1 LIG       -0.017392
      8 C7           24.752     -0.764     -8.905 aj            1 LIG       -0.195597
      9 C8           23.589     -0.820     -9.660 ak            1 LIG       -0.206375
     10 C9           23.607     -0.471    -11.016 an            1 LIG        0.219289
     11 O2           22.513     -0.529    -11.850 ao            1 LIG       -0.306074
     12 C10          21.269     -0.760    -11.327 ap            1 LIG        0.273901
     13 C11          20.669     -2.005    -11.486 aq            1 LIG       -0.275236
     14 C12          19.425     -2.246    -10.916 av            1 LIG        0.227326
     15 F1           18.827     -3.442    -11.072 aw            1 LIG       -0.155041
     16 C13          18.787     -1.252    -10.179 ax            1 LIG       -0.254062
     17 C14          19.354      0.020    -10.073 ay            1 LIG        0.192577
     18 C15          18.686      1.103     -9.377 az            1 LIG        0.222120
     19 C16          20.605      0.243    -10.624 bb            1 LIG       -0.251458
     20 S1           27.454     -0.450     -8.441 bc            1 LIG        0.809416
     21 O3           27.213     -1.368     -7.323 bd            1 LIG       -0.498998
     22 O4           28.578     -0.692     -9.351 bf            1 LIG       -0.498998
     23 C17          27.674      1.264     -7.662 bg            1 LIG        0.608605
     24 F2           26.239      2.247    -13.064 bh            1 LIG       -0.210327
     25 N1           18.166      1.968     -8.813 bj            1 LIG       -0.364015
     26 F3           27.223      1.210     -6.420 bk            1 LIG       -0.185330
     27 F4           28.977      1.553     -7.670 bl            1 LIG       -0.185330
     28 F5           27.032      2.194     -8.323 bm            1 LIG       -0.185330
     29 H1           28.515      1.930    -11.646 bn            1 LIG        0.497450
     30 H2           27.802     -0.301    -11.932 bo            1 LIG        0.090159
     31 H3           27.031      0.719    -13.924 bp            1 LIG        0.058196
     32 H4           25.076     -0.587    -13.659 bq            1 LIG        0.064055
     33 H5           24.302      0.976    -13.476 bs            1 LIG        0.064055
     34 H6           24.665     -1.011     -7.864 bt            1 LIG        0.179918
     35 H7           22.690     -1.152     -9.167 bu            1 LIG        0.175610
     36 H8           21.186     -2.791    -12.010 bv            1 LIG        0.179377
     37 H9           17.882     -1.504     -9.676 bw            1 LIG        0.184440
     38 H10          21.083      1.186    -10.460 bx            1 LIG        0.182908
@<TRIPOS>BOND
        1  1  2  1
        2  1  29  1
        3  2  3  1
        4  2  6  1
        5  2  30  1
        6  3  4  1
        7  3  24  1
        8  3  31  1
        9  4  5  1
        10  4  32  1
        11  4  33  1
        12  5  6  2
        13  5  10  1
        14  6  7  1
        15  7  8  2
        16  7  20  1
        17  8  9  1
        18  8  34  1
        19  9  10  2
        20  9  35  1
        21  10  11  1
        22  11  12  1
        23  12  13  2
        24  12  19  1
        25  13  14  1
        26  13  36  1
        27  14  15  1
        28  14  16  2
        29  16  17  1
        30  16  37  1
        31  17  18  1
        32  17  19  2
        33  18  25  3
        34  19  38  1
        35  20  21  2
        36  20  22  2
        37  20  23  1
        38  23  26  1
        39  23  27  1
        40  23  28  1
@<TRIPOS>SUBSTRUCTURE
       1 LIG             1 RESIDUE    0 **** ROOT      0
