@<TRIPOS>MOLECULE
LIG
71 73
SMALL
USER_CHARGES
@<TRIPOS>ATOM
      1 C1           24.393     31.060     48.195 aa            1 LIG       -0.291631
      2 C2           24.532     32.435     47.518 ab            1 LIG        0.249289
      3 N1           25.847     33.126     47.968 ad            1 LIG       -0.505709
      4 C3           26.561     33.797     46.764 ae            1 LIG        0.249289
      5 C4           27.965     34.306     47.132 af            1 LIG       -0.291631
      6 C5           25.706     34.080     49.180 ah            1 LIG        0.179837
      7 C6           24.992     33.438     50.376 ai            1 LIG       -0.074066
      8 C7           25.066     34.343     51.609 aj            1 LIG        0.205551
      9 O1           24.117     33.903     52.572 ak            1 LIG       -0.481549
     10 C8           24.386     33.925     53.886 an            1 LIG        0.848866
     11 O2           25.447     34.325     54.376 ao            1 LIG       -0.627865
     12 N2           23.271     33.438     54.553 ap            1 LIG       -0.500330
     13 C9           23.106     33.125     55.911 aq            1 LIG        0.208304
     14 C10          24.148     33.126     56.853 av            1 LIG       -0.209900
     15 C11          23.905     32.738     58.170 aw            1 LIG       -0.132770
     16 C12          22.622     32.350     58.559 ax            1 LIG       -0.200619
     17 C13          21.576     32.341     57.635 ay            1 LIG        0.093859
     18 C14          20.165     31.934     58.066 az            1 LIG        0.033294
     19 N3           19.855     30.522     57.769 bb            1 LIG       -0.100700
     20 N4           19.551     30.257     56.465 bc            1 LIG       -0.439406
     21 C15          19.259     29.110     55.974 bd            1 LIG        0.168575
     22 C16          19.156     27.822     56.812 bf            1 LIG       -0.033150
     23 S1           20.107     27.803     58.376 bg            1 LIG       -0.217857
     24 C17          20.203     29.587     58.762 bh            1 LIG        0.679714
     25 O3           20.646     29.884     59.876 bj            1 LIG       -0.575959
     26 C18          18.991     28.983     54.523 bk            1 LIG        0.115095
     27 C19          19.633     29.825     53.606 bl            1 LIG       -0.197200
     28 C20          19.401     29.703     52.239 bm            1 LIG       -0.220174
     29 C21          18.516     28.730     51.748 bn            1 LIG        0.207999
     30 O4           18.245     28.562     50.400 bo            1 LIG       -0.334294
     31 C22          19.105     29.156     49.437 bp            1 LIG        0.059972
     32 C23          17.861     27.880     52.651 bq            1 LIG        0.205170
     33 O5           16.997     26.940     52.119 bs            1 LIG       -0.341256
     34 C24          16.463     25.923     52.961 bt            1 LIG        0.062071
     35 C25          18.108     28.014     54.030 bu            1 LIG       -0.278685
     36 C26          21.826     32.727     56.313 bv            1 LIG       -0.272623
     37 H1           23.573     30.498     47.750 bw            1 LIG        0.113409
     38 H2           24.180     31.134     49.260 bx            1 LIG        0.113409
     39 H3           25.303     30.460     48.082 by            1 LIG        0.113409
     40 H4           24.587     32.296     46.435 bz            1 LIG        0.042920
     41 H5           23.706     33.125     47.722 cb            1 LIG        0.042920
     42 H6           26.637     33.023     45.999 ci            1 LIG        0.042920
     43 H7           25.902     34.593     46.411 cj            1 LIG        0.042920
     44 H8           28.505     34.609     46.237 ck            1 LIG        0.113409
     45 H9           28.553     33.527     47.620 cm            1 LIG        0.113409
     46 H10          27.929     35.172     47.791 cn            1 LIG        0.113409
     47 H11          26.729     34.327     49.469 ct            1 LIG        0.063852
     48 H12          25.200     34.980     48.821 cw            1 LIG        0.063852
     49 H13          23.944     33.260     50.131 da            1 LIG        0.049210
     50 H14          25.442     32.474     50.617 db            1 LIG        0.049210
     51 H15          26.088     34.336     51.994 dc            1 LIG        0.057922
     52 H16          24.832     35.372     51.338 dd            1 LIG        0.057922
     53 H17          22.468     33.271     53.967 de            1 LIG        0.322834
     54 H18          25.154     33.407     56.588 df            1 LIG        0.145078
     55 H19          24.711     32.747     58.887 dg            1 LIG        0.157355
     56 H20          22.445     32.046     59.578 dh            1 LIG        0.171033
     57 H21          20.005     32.181     59.120 di            1 LIG        0.081736
     58 H22          19.440     32.565     57.548 dj            1 LIG        0.081736
     59 H23          19.536     26.975     56.239 dk            1 LIG        0.106517
     60 H24          18.112     27.621     57.058 dl            1 LIG        0.106517
     61 H25          20.323     30.583     53.947 dm            1 LIG        0.169154
     62 H26          19.914     30.379     51.573 dn            1 LIG        0.163060
     63 H27          18.812     28.823     48.442 do            1 LIG        0.062871
     64 H28          20.145     28.859     49.590 dp            1 LIG        0.062871
     65 H29          19.032     30.245     49.452 dq            1 LIG        0.062871
     66 H30          15.802     26.340     53.721 dr            1 LIG        0.060505
     67 H31          17.262     25.357     53.443 ds            1 LIG        0.060505
     68 H32          15.875     25.229     52.360 dt            1 LIG        0.060505
     69 H33          17.603     27.357     54.721 dv            1 LIG        0.155393
     70 H34          21.016     32.707     55.599 dw            1 LIG        0.183168
     71 H35          26.463     32.374     48.275 dx            1 LIG        0.352674
@<TRIPOS>BOND
        1  1  2  1
        2  1  37  1
        3  1  38  1
        4  1  39  1
        5  2  3  1
        6  2  40  1
        7  2  41  1
        8  3  4  1
        9  3  6  1
        10  3  71  1
        11  4  5  1
        12  4  42  1
        13  4  43  1
        14  5  44  1
        15  5  45  1
        16  5  46  1
        17  6  7  1
        18  6  47  1
        19  6  48  1
        20  7  8  1
        21  7  49  1
        22  7  50  1
        23  8  9  1
        24  8  51  1
        25  8  52  1
        26  9  10  1
        27  10  11  2
        28  10  12  1
        29  12  13  1
        30  12  53  1
        31  13  14  2
        32  13  36  1
        33  14  15  1
        34  14  54  1
        35  15  16  2
        36  15  55  1
        37  16  17  1
        38  16  56  1
        39  17  18  1
        40  17  36  2
        41  18  19  1
        42  18  57  1
        43  18  58  1
        44  19  20  1
        45  19  24  1
        46  20  21  2
        47  21  22  1
        48  21  26  1
        49  22  23  1
        50  22  59  1
        51  22  60  1
        52  23  24  1
        53  24  25  2
        54  26  27  2
        55  26  35  1
        56  27  28  1
        57  27  61  1
        58  28  29  2
        59  28  62  1
        60  29  30  1
        61  29  32  1
        62  30  31  1
        63  31  63  1
        64  31  64  1
        65  31  65  1
        66  32  33  1
        67  32  35  2
        68  33  34  1
        69  34  66  1
        70  34  67  1
        71  34  68  1
        72  35  69  1
        73  36  70  1
@<TRIPOS>SUBSTRUCTURE
       1 LIG             1 RESIDUE    0 **** ROOT      0
