@<TRIPOS>MOLECULE
LIG
45 48
SMALL
USER_CHARGES
@<TRIPOS>ATOM
      1 C1           24.927     34.039     50.796 aa            1 LIG       -0.298906
      2 C2           24.329     33.797     52.168 ab            1 LIG        0.384781
      3 C3           23.050     33.269     52.334 ad            1 LIG       -0.214000
      4 C4           22.604     33.041     53.635 ae            1 LIG       -0.218783
      5 C5           23.454     33.356     54.706 af            1 LIG        0.421853
      6 N1           24.675     33.919     54.470 ah            1 LIG       -0.312634
      7 N2           25.118     34.128     53.221 ai            1 LIG       -0.280967
      8 C6           23.124     33.026     56.134 aj            1 LIG       -0.020692
      9 C7           24.121     33.030     57.124 ak            1 LIG       -0.166382
     10 C8           23.847     32.642     58.433 an            1 LIG       -0.135170
     11 C9           22.570     32.217     58.776 ao            1 LIG       -0.193165
     12 C10          21.553     32.208     57.823 ap            1 LIG        0.085122
     13 C11          20.150     31.747     58.204 aq            1 LIG        0.031514
     14 N3           19.885     30.340     57.854 av            1 LIG        0.045000
     15 N4           19.413     30.109     56.560 aw            1 LIG       -0.387560
     16 C12          19.157     28.918     56.118 ax            1 LIG        0.213334
     17 C13          19.406     27.820     57.038 ay            1 LIG       -0.097310
     18 C14          19.887     28.035     58.282 az            1 LIG       -0.193234
     19 C15          20.185     29.364     58.785 bb            1 LIG        0.589040
     20 O1           20.646     29.545     59.914 bc            1 LIG       -0.649793
     21 C16          18.646     28.660     54.751 bd            1 LIG        0.117775
     22 C17          17.944     27.485     54.430 bf            1 LIG       -0.265630
     23 C18          17.473     27.261     53.136 bg            1 LIG        0.224953
     24 F1           16.794     26.129     52.853 bh            1 LIG       -0.159794
     25 C19          17.709     28.202     52.138 bj            1 LIG       -0.274390
     26 C20          18.402     29.373     52.434 bk            1 LIG        0.224953
     27 F2           18.624     30.291     51.468 bl            1 LIG       -0.159794
     28 C21          18.869     29.601     53.729 bm            1 LIG       -0.265630
     29 C22          21.829     32.635     56.519 bn            1 LIG       -0.234821
     30 H1           25.040     35.110     50.622 bo            1 LIG        0.091698
     31 H2           24.296     33.627     50.004 bp            1 LIG        0.091698
     32 H3           25.912     33.571     50.717 bq            1 LIG        0.091698
     33 H4           22.421     33.032     51.486 bs            1 LIG        0.142212
     34 H5           21.634     32.592     53.776 bt            1 LIG        0.152562
     35 H6           25.135     33.318     56.888 bu            1 LIG        0.169228
     36 H7           24.633     32.658     59.174 bv            1 LIG        0.148306
     37 H8           22.365     31.890     59.786 bw            1 LIG        0.143755
     38 H9           19.976     31.931     59.271 bx            1 LIG        0.079639
     39 H10          19.418     32.385     57.706 by            1 LIG        0.079639
     40 H11          19.230     26.794     56.755 bz            1 LIG        0.120751
     41 H12          20.078     27.198     58.935 cb            1 LIG        0.139501
     42 H13          17.740     26.727     55.173 ci            1 LIG        0.185311
     43 H14          17.358     28.020     51.133 cj            1 LIG        0.191070
     44 H15          19.408     30.514     53.926 ck            1 LIG        0.185311
     45 H16          21.023     32.625     55.802 cm            1 LIG        0.177950
@<TRIPOS>BOND
        1  1  2  1
        2  1  30  1
        3  1  31  1
        4  1  32  1
        5  2  3  2
        6  2  7  1
        7  3  4  1
        8  3  33  1
        9  4  5  2
        10  4  34  1
        11  5  6  1
        12  5  8  1
        13  6  7  2
        14  8  9  2
        15  8  29  1
        16  9  10  1
        17  9  35  1
        18  10  11  2
        19  10  36  1
        20  11  12  1
        21  11  37  1
        22  12  13  1
        23  12  29  2
        24  13  14  1
        25  13  38  1
        26  13  39  1
        27  14  15  1
        28  14  19  1
        29  15  16  2
        30  16  17  1
        31  16  21  1
        32  17  18  2
        33  17  40  1
        34  18  19  1
        35  18  41  1
        36  19  20  2
        37  21  22  2
        38  21  28  1
        39  22  23  1
        40  22  42  1
        41  23  24  1
        42  23  25  2
        43  25  26  1
        44  25  43  1
        45  26  27  1
        46  26  28  2
        47  28  44  1
        48  29  45  1
@<TRIPOS>SUBSTRUCTURE
       1 LIG             1 RESIDUE    0 **** ROOT      0
