@<TRIPOS>MOLECULE
LIG
48 51
SMALL
USER_CHARGES
@<TRIPOS>ATOM
      1 C1           15.295     -4.649      7.543 aa            1 LIG       -0.231076
      2 N1           14.243     -3.972      6.683 ab            1 LIG       -0.222199
      3 C2           14.715     -3.057      5.551 ad            1 LIG        0.295287
      4 C3           14.900     -3.785      4.196 ae            1 LIG        0.247849
      5 C4           15.078     -5.326      4.242 af            1 LIG       -0.072447
      6 C5           15.214     -5.909      2.828 ah            1 LIG       -0.060597
      7 C6           14.096     -5.410      1.885 ai            1 LIG        0.048017
      8 C7           12.705     -6.066      2.133 aj            1 LIG        0.122064
      9 C8           12.752     -7.589      2.032 ak            1 LIG        0.070036
     10 C9           13.243     -8.202      0.873 an            1 LIG       -0.193602
     11 C10          13.314     -9.588      0.790 ao            1 LIG       -0.132262
     12 C11          12.899    -10.363      1.869 ap            1 LIG       -0.131406
     13 C12          12.398     -9.762      3.020 aq            1 LIG       -0.132262
     14 C13          12.319     -8.375      3.101 av            1 LIG       -0.193602
     15 N2           11.700     -5.508      1.230 aw            1 LIG       -0.552912
     16 C14          11.795     -4.172      0.788 ax            1 LIG        0.160997
     17 C15          10.780     -3.691     -0.046 ay            1 LIG        0.144243
     18 F1            9.739     -4.463     -0.338 az            1 LIG       -0.161574
     19 C16          10.817     -2.389     -0.540 bb            1 LIG       -0.262783
     20 C17          11.859     -1.556     -0.179 bc            1 LIG        0.143930
     21 Br1          11.922      0.227     -0.824 bd            1 LIG       -0.115260
     22 C18          12.858     -2.018      0.674 bf            1 LIG       -0.261230
     23 C19          12.870     -3.342      1.135 bg            1 LIG       -0.037543
     24 C20          14.014     -3.867      1.990 bh            1 LIG        0.271498
     25 O1           13.802     -3.460      3.341 bj            1 LIG       -0.490798
     26 H1           14.672     -5.338      8.114 bk            1 LIG        0.149162
     27 H2           15.738     -3.867      8.158 bl            1 LIG        0.149162
     28 H3           15.989     -5.144      6.869 bm            1 LIG        0.149162
     29 H4           13.699     -4.708      6.265 bn            1 LIG        0.308909
     30 H5           13.901     -2.331      5.519 bo            1 LIG       -0.022899
     31 H6           15.623     -2.574      5.909 bp            1 LIG       -0.022899
     32 H7           15.801     -3.353      3.759 bq            1 LIG        0.049846
     33 H8           15.967     -5.590      4.812 bs            1 LIG        0.051262
     34 H9           14.233     -5.798      4.743 bt            1 LIG        0.051262
     35 H10          16.182     -5.614      2.414 bu            1 LIG        0.033165
     36 H11          15.239     -6.997      2.874 bv            1 LIG        0.033165
     37 H12          14.402     -5.640      0.864 bw            1 LIG        0.024368
     38 H13          12.363     -5.828      3.142 bx            1 LIG        0.041530
     39 H14          13.560     -7.605      0.032 by            1 LIG        0.140188
     40 H15          13.682    -10.058     -0.109 bz            1 LIG        0.154072
     41 H16          12.956    -11.440      1.808 cb            1 LIG        0.156015
     42 H17          12.073    -10.371      3.853 ci            1 LIG        0.154072
     43 H18          11.927     -7.912      3.995 cj            1 LIG        0.140188
     44 H19          10.771     -5.853      1.446 ck            1 LIG        0.359345
     45 H20          10.012     -2.034     -1.168 cm            1 LIG        0.192313
     46 H21          13.635     -1.332      0.963 cn            1 LIG        0.163309
     47 H22          14.951     -3.423      1.647 ct            1 LIG       -0.015974
     48 H23          13.682     -3.429      7.324 cw            1 LIG        0.308909
@<TRIPOS>BOND
        1  1  2  1
        2  1  26  1
        3  1  27  1
        4  1  28  1
        5  2  3  1
        6  2  29  1
        7  2  48  1
        8  3  4  1
        9  3  30  1
        10  3  31  1
        11  4  5  1
        12  4  25  1
        13  4  32  1
        14  5  6  1
        15  5  33  1
        16  5  34  1
        17  6  7  1
        18  6  35  1
        19  6  36  1
        20  7  8  1
        21  7  24  1
        22  7  37  1
        23  8  9  1
        24  8  15  1
        25  8  38  1
        26  9  10  2
        27  9  14  1
        28  10  11  1
        29  10  39  1
        30  11  12  2
        31  11  40  1
        32  12  13  1
        33  12  41  1
        34  13  14  2
        35  13  42  1
        36  14  43  1
        37  15  16  1
        38  15  44  1
        39  16  17  2
        40  16  23  1
        41  17  18  1
        42  17  19  1
        43  19  20  2
        44  19  45  1
        45  20  21  1
        46  20  22  1
        47  22  23  2
        48  22  46  1
        49  23  24  1
        50  24  25  1
        51  24  47  1
@<TRIPOS>SUBSTRUCTURE
       1 LIG             1 RESIDUE    0 **** ROOT      0
