@<TRIPOS>MOLECULE
LIG
43 45
SMALL
USER_CHARGES
@<TRIPOS>ATOM
      1 N1           24.699     41.288      3.108 aa            1 LIG       -0.492784
      2 C1           24.754     42.366      2.083 ab            1 LIG        0.019188
      3 C2           26.082     43.185      2.078 ad            1 LIG        0.270405
      4 N2           27.254     42.333      2.413 ae            1 LIG       -0.392665
      5 C3           27.122     41.495      3.636 af            1 LIG        0.270405
      6 C4           25.927     40.526      3.444 ah            1 LIG        0.019188
      7 C5           19.706     40.207      5.492 ai            1 LIG       -0.067439
      8 C6           19.476     40.522      6.829 aj            1 LIG        0.066500
      9 C7           18.197     40.380      7.380 ak            1 LIG        0.106469
     10 C8           17.116     39.987      6.582 an            1 LIG       -0.194959
     11 C9           17.336     39.694      5.221 ao            1 LIG       -0.137555
     12 C10          18.621     39.838      4.672 ap            1 LIG       -0.183322
     13 C11          21.064     40.437      4.925 aq            1 LIG        0.318932
     14 N3           21.183     41.438      3.956 av            1 LIG       -0.516084
     15 C12          22.371     41.661      3.375 aw            1 LIG        0.115206
     16 C13          23.501     40.978      3.701 ax            1 LIG        0.523196
     17 N4           23.399     40.001      4.638 ay            1 LIG       -0.625141
     18 C14          22.231     39.697      5.247 az            1 LIG        0.528319
     19 Cl1          17.905     40.722      9.048 bb            1 LIG       -0.094761
     20 Cl2          20.775     41.074      7.838 bc            1 LIG       -0.092125
     21 N5           22.222     38.618      6.231 bd            1 LIG       -0.955738
     22 C15          26.282     43.871      0.759 bf            1 LIG       -0.323923
     23 C16          28.386     40.722      3.870 bg            1 LIG       -0.323923
     24 H1           23.997     43.138      2.187 bh            1 LIG        0.093453
     25 H2           24.596     41.904      1.106 bj            1 LIG        0.093453
     26 H3           26.016     43.971      2.832 bk            1 LIG        0.044933
     27 H4           28.070     42.920      2.505 bl            1 LIG        0.309504
     28 H5           26.964     42.129      4.510 bm            1 LIG        0.044933
     29 H6           25.811     39.936      4.355 bn            1 LIG        0.093453
     30 H7           26.126     39.809      2.646 bo            1 LIG        0.093453
     31 H8           16.129     39.895      7.011 bp            1 LIG        0.185309
     32 H9           16.509     39.391      4.594 bq            1 LIG        0.172621
     33 H10          18.783     39.650      3.620 bs            1 LIG        0.166017
     34 H11          21.364     38.370      6.701 bt            1 LIG        0.415869
     35 H12          23.075     38.119      6.441 bu            1 LIG        0.415869
     36 H13          25.412     44.489      0.535 bv            1 LIG        0.112281
     37 H14          26.408     43.123     -0.024 bw            1 LIG        0.112281
     38 H15          27.171     44.500      0.808 bx            1 LIG        0.112281
     39 H16          28.277     40.112      4.767 by            1 LIG        0.112281
     40 H17          29.217     41.415      4.000 bz            1 LIG        0.112281
     41 H18          28.581     40.076      3.014 cb            1 LIG        0.112281
     42 H19          27.395     41.700      1.639 ci            1 LIG        0.309504
     43 H20          22.283     42.418      2.617 cj            1 LIG        0.050556
@<TRIPOS>BOND
        1  1  2  1
        2  1  6  1
        3  1  16  1
        4  2  3  1
        5  2  24  1
        6  2  25  1
        7  3  4  1
        8  3  22  1
        9  3  26  1
        10  4  5  1
        11  4  27  1
        12  4  42  1
        13  5  6  1
        14  5  23  1
        15  5  28  1
        16  6  29  1
        17  6  30  1
        18  7  8  2
        19  7  12  1
        20  7  13  1
        21  8  9  1
        22  8  20  1
        23  9  10  2
        24  9  19  1
        25  10  11  1
        26  10  31  1
        27  11  12  2
        28  11  32  1
        29  12  33  1
        30  13  14  2
        31  13  18  1
        32  14  15  1
        33  15  16  2
        34  15  43  1
        35  16  17  1
        36  17  18  2
        37  18  21  1
        38  21  34  1
        39  21  35  1
        40  22  36  1
        41  22  37  1
        42  22  38  1
        43  23  39  1
        44  23  40  1
        45  23  41  1
@<TRIPOS>SUBSTRUCTURE
       1 LIG             1 RESIDUE    0 **** ROOT      0
