@<TRIPOS>MOLECULE
LIG
51 54
SMALL
USER_CHARGES
@<TRIPOS>ATOM
      1 C1           -4.266     -3.118     13.571 aa            1 LIG        0.065493
      2 O1           -3.890     -2.416     14.744 ab            1 LIG       -0.353356
      3 C2           -2.544     -2.172     14.842 ad            1 LIG        0.191094
      4 C3           -1.769     -2.913     15.724 ae            1 LIG       -0.222482
      5 C4           -0.409     -2.651     15.861 af            1 LIG       -0.223930
      6 C5            0.205     -1.648     15.110 ah            1 LIG        0.272063
      7 N1            1.602     -1.401     15.349 ai            1 LIG       -0.565837
      8 C6            2.542     -0.481     14.777 aj            1 LIG        0.446114
      9 N2            2.197      0.331     13.737 ak            1 LIG       -0.556159
     10 C7            3.115      1.225     13.236 an            1 LIG        0.212840
     11 C8            4.412      1.275     13.716 ao            1 LIG       -0.117818
     12 N3            4.747      0.482     14.773 ap            1 LIG        0.062693
     13 C9            5.902      0.388     15.497 aq            1 LIG       -0.163841
     14 C10           5.611     -0.538     16.526 av            1 LIG        0.030991
     15 N4            4.397     -1.059     16.385 aw            1 LIG       -0.515502
     16 C11           3.846     -0.413     15.341 ax            1 LIG        0.172434
     17 C12           2.647      2.171     12.125 ay            1 LIG        0.055004
     18 C13           1.297      2.602     12.085 az            1 LIG       -0.187504
     19 C14           0.870      3.488     11.089 bb            1 LIG       -0.196333
     20 C15           1.772      3.971     10.136 bc            1 LIG        0.011549
     21 C16           3.081      3.538     10.157 bd            1 LIG       -0.236973
     22 C17           3.514      2.633     11.094 bf            1 LIG        0.096592
     23 C18           4.904      2.147     10.960 bg            1 LIG       -0.242909
     24 C19           1.347      4.921      9.066 bh            1 LIG        0.750808
     25 O2            0.168      5.096      8.834 bj            1 LIG       -0.623170
     26 N5            2.326      5.542      8.394 bk            1 LIG       -0.926030
     27 C20          -0.570     -0.933     14.187 bl            1 LIG       -0.301303
     28 C21          -1.960     -1.183     14.059 bm            1 LIG        0.202333
     29 O3           -2.769     -0.475     13.169 bn            1 LIG       -0.347100
     30 C22          -2.296      0.570     12.366 bo            1 LIG        0.061502
     31 H1           -5.344     -3.262     13.581 bp            1 LIG        0.054887
     32 H2           -3.788     -4.096     13.551 bq            1 LIG        0.054887
     33 H3           -4.011     -2.587     12.651 bs            1 LIG        0.054887
     34 H4           -2.226     -3.693     16.320 bt            1 LIG        0.154688
     35 H5            0.174     -3.229     16.565 bu            1 LIG        0.143659
     36 H6            1.982     -1.938     16.113 bv            1 LIG        0.363846
     37 H7            5.170      1.954     13.349 bw            1 LIG        0.121651
     38 H8            6.784      0.979     15.288 bx            1 LIG        0.149008
     39 H9            6.259     -0.815     17.331 by            1 LIG        0.148889
     40 H10           0.596      2.258     12.830 bz            1 LIG        0.151927
     41 H11          -0.166      3.808     11.069 cb            1 LIG        0.142753
     42 H12           3.770      3.891      9.415 ci            1 LIG        0.171887
     43 H13           5.262      2.346     11.870 cj            1 LIG        0.083727
     44 H14           5.395      2.848     10.321 ck            1 LIG        0.083727
     45 H15           5.050      1.120     10.639 cm            1 LIG        0.083727
     46 H16           2.119      6.200      7.657 cn            1 LIG        0.405681
     47 H17           3.289      5.343      8.618 ct            1 LIG        0.405681
     48 H18          -0.134     -0.242     13.606 cw            1 LIG        0.198592
     49 H19          -3.078      1.004     11.746 da            1 LIG        0.058209
     50 H20          -1.482      0.264     11.713 db            1 LIG        0.058209
     51 H21          -2.038      1.325     13.074 dc            1 LIG        0.058209
@<TRIPOS>BOND
        1  1  2  1
        2  1  31  1
        3  1  32  1
        4  1  33  1
        5  2  3  1
        6  3  4  2
        7  3  28  1
        8  4  5  1
        9  4  34  1
        10  5  6  2
        11  5  35  1
        12  6  7  1
        13  6  27  1
        14  7  8  1
        15  7  36  1
        16  8  9  2
        17  8  16  1
        18  9  10  1
        19  10  11  2
        20  10  17  1
        21  11  12  1
        22  11  37  1
        23  12  13  1
        24  12  16  1
        25  13  14  2
        26  13  38  1
        27  14  15  1
        28  14  39  1
        29  15  16  2
        30  17  18  2
        31  17  22  1
        32  18  19  1
        33  18  40  1
        34  19  20  2
        35  19  41  1
        36  20  21  1
        37  20  24  1
        38  21  22  2
        39  21  42  1
        40  22  23  1
        41  23  43  1
        42  23  44  1
        43  23  45  1
        44  24  25  2
        45  24  26  1
        46  26  46  1
        47  26  47  1
        48  27  28  2
        49  27  48  1
        50  28  29  1
        51  29  30  1
        52  30  49  1
        53  30  50  1
        54  30  51  1
@<TRIPOS>SUBSTRUCTURE
       1 LIG             1 RESIDUE    0 **** ROOT      0
