@<TRIPOS>MOLECULE
LIG
37 39
SMALL
USER_CHARGES
@<TRIPOS>ATOM
      1 C1          -14.614    -14.875    -27.678 aa            1 LIG       -0.194863
      2 C2          -15.146    -15.645    -26.648 ab            1 LIG        0.233205
      3 C3          -14.777    -13.498    -27.633 ad            1 LIG       -0.191142
      4 C4          -15.863    -15.064    -25.593 ae            1 LIG       -0.052287
      5 N1          -14.934    -17.012    -26.693 af            1 LIG       -0.492426
      6 C5          -15.459    -12.929    -26.561 ah            1 LIG        0.163659
      7 C6          -16.021    -13.688    -25.541 ai            1 LIG       -0.238751
      8 C7          -16.456    -15.966    -24.534 aj            1 LIG        0.631603
      9 N2          -16.177    -17.273    -24.785 ak            1 LIG       -0.410126
     10 O1          -17.137    -15.610    -23.571 an            1 LIG       -0.627798
     11 C8          -15.446    -17.812    -25.827 ao            1 LIG        0.332098
     12 C9          -15.301    -19.258    -25.968 ap            1 LIG        0.099679
     13 C10         -15.788    -20.144    -25.003 aq            1 LIG       -0.186462
     14 C11         -15.585    -21.505    -25.167 av            1 LIG       -0.190350
     15 C12         -14.921    -21.989    -26.300 aw            1 LIG        0.044391
     16 C13         -14.450    -21.104    -27.260 ax            1 LIG       -0.190350
     17 C14         -14.647    -19.751    -27.104 ay            1 LIG       -0.186462
     18 C15         -14.568    -23.459    -26.421 az            1 LIG        0.477441
     19 O2          -14.254    -23.895    -27.719 bb            1 LIG       -0.728628
     20 Cl1         -15.591    -11.254    -26.487 bc            1 LIG       -0.129081
     21 C16         -15.737    -24.373    -26.145 bd            1 LIG       -0.306575
     22 C17         -13.353    -23.688    -25.535 bf            1 LIG       -0.306575
     23 H1          -14.072    -15.335    -28.492 bg            1 LIG        0.175147
     24 H2          -14.358    -12.872    -28.409 bh            1 LIG        0.172242
     25 H3          -16.553    -13.209    -24.730 bj            1 LIG        0.189955
     26 H4          -16.658    -17.908    -24.160 bk            1 LIG        0.325493
     27 H5          -16.294    -19.799    -24.112 bl            1 LIG        0.156279
     28 H6          -15.910    -22.169    -24.381 bm            1 LIG        0.158939
     29 H7          -13.899    -21.455    -28.119 bn            1 LIG        0.158939
     30 H8          -14.262    -19.097    -27.874 bo            1 LIG        0.156279
     31 H9          -14.051    -24.836    -27.668 bp            1 LIG        0.463047
     32 H10         -16.572    -24.086    -26.783 bq            1 LIG        0.082247
     33 H11         -16.074    -24.298    -25.115 bs            1 LIG        0.082247
     34 H12         -15.526    -25.427    -26.334 bt            1 LIG        0.082247
     35 H13         -12.548    -22.994    -25.777 bu            1 LIG        0.082247
     36 H14         -12.975    -24.692    -25.679 bv            1 LIG        0.082247
     37 H15         -13.585    -23.561    -24.477 bw            1 LIG        0.082247
@<TRIPOS>BOND
        1  1  2  2
        2  1  3  1
        3  1  23  1
        4  2  4  1
        5  2  5  1
        6  3  6  2
        7  3  24  1
        8  4  7  2
        9  4  8  1
        10  5  11  2
        11  6  7  1
        12  6  20  1
        13  7  25  1
        14  8  9  1
        15  8  10  2
        16  9  11  1
        17  9  26  1
        18  11  12  1
        19  12  13  2
        20  12  17  1
        21  13  14  1
        22  13  27  1
        23  14  15  2
        24  14  28  1
        25  15  16  1
        26  15  18  1
        27  16  17  2
        28  16  29  1
        29  17  30  1
        30  18  19  1
        31  18  21  1
        32  18  22  1
        33  19  31  1
        34  21  32  1
        35  21  33  1
        36  21  34  1
        37  22  35  1
        38  22  36  1
        39  22  37  1
@<TRIPOS>SUBSTRUCTURE
       1 LIG             1 RESIDUE    0 **** ROOT      0
