@<TRIPOS>MOLECULE
LIG
40 43
SMALL
USER_CHARGES
@<TRIPOS>ATOM
      1 O1           27.885      0.957    -11.236 aa            1 LIG       -0.678776
      2 C1           26.926      0.075    -11.817 ab            1 LIG        0.193349
      3 C2           26.209      0.644    -13.056 ad            1 LIG        0.290454
      4 C3           24.739      0.320    -12.944 ae            1 LIG       -0.020094
      5 C4           24.547     -0.032    -11.505 af            1 LIG       -0.038849
      6 C5           25.773     -0.252    -10.865 ah            1 LIG       -0.043526
      7 C6           25.778     -0.739     -9.545 ai            1 LIG       -0.023424
      8 C7           24.564     -0.935     -8.880 aj            1 LIG       -0.184736
      9 C8           23.358     -0.731     -9.543 ak            1 LIG       -0.203695
     10 C9           23.345     -0.300    -10.867 an            1 LIG        0.223130
     11 O2           22.196     -0.047    -11.582 ao            1 LIG       -0.305192
     12 C10          21.023     -0.666    -11.235 ap            1 LIG        0.206211
     13 C11          20.773     -2.019    -11.469 aq            1 LIG       -0.222960
     14 C12          19.556     -2.592    -11.103 av            1 LIG       -0.209265
     15 C13          18.589     -1.865    -10.416 aw            1 LIG        0.146630
     16 C14          18.867     -0.527    -10.151 ax            1 LIG        0.008316
     17 C15          20.049      0.099    -10.581 ay            1 LIG        0.001687
     18 S1           27.297     -1.171     -8.687 az            1 LIG        0.792963
     19 O3           28.293     -1.469     -9.715 bb            1 LIG       -0.488900
     20 O4           26.974     -2.214     -7.707 bc            1 LIG       -0.488900
     21 C16          27.776      0.422     -7.764 bd            1 LIG        0.608887
     22 F1           26.688      0.174    -14.208 bf            1 LIG       -0.199592
     23 F2           26.310      1.966    -13.064 bg            1 LIG       -0.199592
     24 F3           27.086      0.466     -6.624 bh            1 LIG       -0.185178
     25 F4           29.085      0.380     -7.520 bj            1 LIG       -0.185178
     26 F5           27.485      1.476     -8.519 bk            1 LIG       -0.185178
     27 F6           17.436     -2.433    -10.013 bl            1 LIG       -0.167677
     28 C17          19.883      1.450    -10.168 bm            1 LIG       -0.004907
     29 N1           18.780      1.634     -9.499 bn            1 LIG       -0.385762
     30 N2           18.182      0.445     -9.462 bo            1 LIG       -0.000370
     31 H1           28.472      1.319    -11.912 bp            1 LIG        0.497921
     32 H2           27.418     -0.852    -12.100 bq            1 LIG        0.097957
     33 H3           24.091      1.104    -13.329 bs            1 LIG        0.075412
     34 H4           24.507     -0.597    -13.471 bt            1 LIG        0.075412
     35 H5           24.543     -1.280     -7.864 bu            1 LIG        0.205745
     36 H6           22.417     -0.915     -9.063 bv            1 LIG        0.184457
     37 H7           21.523     -2.630    -11.947 bw            1 LIG        0.158761
     38 H8           19.370     -3.628    -11.332 bx            1 LIG        0.179594
     39 H9           20.566      2.274    -10.264 by            1 LIG        0.169721
     40 H10          17.273      0.344     -9.029 bz            1 LIG        0.305144
@<TRIPOS>BOND
        1  1  2  1
        2  1  31  1
        3  2  3  1
        4  2  6  1
        5  2  32  1
        6  3  4  1
        7  3  22  1
        8  3  23  1
        9  4  5  1
        10  4  33  1
        11  4  34  1
        12  5  6  2
        13  5  10  1
        14  6  7  1
        15  7  8  2
        16  7  18  1
        17  8  9  1
        18  8  35  1
        19  9  10  2
        20  9  36  1
        21  10  11  1
        22  11  12  1
        23  12  13  2
        24  12  17  1
        25  13  14  1
        26  13  37  1
        27  14  15  2
        28  14  38  1
        29  15  16  1
        30  15  27  1
        31  16  17  2
        32  16  30  1
        33  17  28  1
        34  18  19  2
        35  18  20  2
        36  18  21  1
        37  21  24  1
        38  21  25  1
        39  21  26  1
        40  28  29  2
        41  28  39  1
        42  29  30  1
        43  30  40  1
@<TRIPOS>SUBSTRUCTURE
       1 LIG             1 RESIDUE    0 **** ROOT      0
