@<TRIPOS>MOLECULE
LIG
45 49
SMALL
USER_CHARGES
@<TRIPOS>ATOM
      1 C1           92.565     47.336    266.478 aa            1 LIG       -0.302621
      2 C2           91.610     48.327    266.668 ab            1 LIG        0.283155
      3 C3           91.971     49.526    267.276 ad            1 LIG       -0.242135
      4 C4           93.285     49.785    267.689 ae            1 LIG       -0.001825
      5 C5           93.896     47.532    266.915 af            1 LIG        0.297184
      6 C6           94.273     48.773    267.516 ah            1 LIG        0.246897
      7 N1           95.562     48.961    267.944 ai            1 LIG       -0.481859
      8 C7           96.453     47.955    267.761 aj            1 LIG        0.167374
      9 C8           96.060     46.740    267.204 ak            1 LIG        0.172978
     10 N2           94.801     46.522    266.780 an            1 LIG       -0.484522
     11 C9           93.583     51.080    268.339 ao            1 LIG        0.076893
     12 C10          94.563     51.932    267.806 ap            1 LIG       -0.169157
     13 C11          94.860     53.172    268.373 aq            1 LIG       -0.192644
     14 C12          92.876     51.442    269.488 av            1 LIG       -0.231066
     15 C13          93.168     52.678    270.074 aw            1 LIG        0.076419
     16 C14          94.135     53.553    269.506 ax            1 LIG        0.218641
     17 N3           94.311     54.722    270.153 ay            1 LIG       -0.432498
     18 C15          93.586     54.756    271.238 az            1 LIG        0.065447
     19 S1           92.512     53.409    271.526 bb            1 LIG       -0.049630
     20 N4           90.270     48.114    266.311 bc            1 LIG       -0.560662
     21 C16          89.713     47.338    265.285 bd            1 LIG        0.149807
     22 C17          88.420     46.798    265.394 bf            1 LIG       -0.024830
     23 C18          87.883     46.090    264.314 bg            1 LIG       -0.271913
     24 C19          88.652     45.944    263.160 bh            1 LIG        0.239836
     25 N5           89.906     46.447    263.036 bj            1 LIG       -0.467573
     26 C20          90.415     47.128    264.094 bk            1 LIG        0.177698
     27 S2           87.481     46.889    266.922 bl            1 LIG        0.920165
     28 O1           86.128     46.390    266.664 bm            1 LIG       -0.547105
     29 O2           87.679     48.230    267.483 bn            1 LIG       -0.547105
     30 C21          88.374     45.634    268.007 bo            1 LIG       -0.370407
     31 H1           92.277     46.387    266.047 bp            1 LIG        0.169941
     32 H2           91.217     50.283    267.428 bq            1 LIG        0.159931
     33 H3           97.475     48.151    268.045 bs            1 LIG        0.060758
     34 H4           96.772     45.941    267.034 bt            1 LIG        0.062498
     35 H5           95.098     51.644    266.915 bu            1 LIG        0.169880
     36 H6           95.613     53.819    267.942 bv            1 LIG        0.166341
     37 H7           92.140     50.774    269.924 bw            1 LIG        0.150884
     38 H8           93.622     55.586    271.914 bx            1 LIG        0.182914
     39 H9           89.564     48.590    266.863 by            1 LIG        0.381298
     40 H10          86.902     45.640    264.386 bz            1 LIG        0.171936
     41 H11          88.270     45.384    262.320 cb            1 LIG        0.078962
     42 H12          91.411     47.522    263.981 ci            1 LIG        0.084435
     43 H13          87.848     45.518    268.955 cj            1 LIG        0.148426
     44 H14          89.396     45.985    268.156 ck            1 LIG        0.148426
     45 H15          88.368     44.673    267.498 cm            1 LIG        0.148426
@<TRIPOS>BOND
        1  1  2  2
        2  1  5  1
        3  1  31  1
        4  2  3  1
        5  2  20  1
        6  3  4  2
        7  3  32  1
        8  4  6  1
        9  4  11  1
        10  5  6  2
        11  5  10  1
        12  6  7  1
        13  7  8  2
        14  8  9  1
        15  8  33  1
        16  9  10  2
        17  9  34  1
        18  11  12  2
        19  11  14  1
        20  12  13  1
        21  12  35  1
        22  13  16  2
        23  13  36  1
        24  14  15  2
        25  14  37  1
        26  15  16  1
        27  15  19  1
        28  16  17  1
        29  17  18  2
        30  18  19  1
        31  18  38  1
        32  20  21  1
        33  20  39  1
        34  21  22  2
        35  21  26  1
        36  22  23  1
        37  22  27  1
        38  23  24  2
        39  23  40  1
        40  24  25  1
        41  24  41  1
        42  25  26  2
        43  26  42  1
        44  27  28  2
        45  27  29  2
        46  27  30  1
        47  30  43  1
        48  30  44  1
        49  30  45  1
@<TRIPOS>SUBSTRUCTURE
       1 LIG             1 RESIDUE    0 **** ROOT      0
