@<TRIPOS>MOLECULE
LIG
49 53
SMALL
USER_CHARGES
@<TRIPOS>ATOM
      1 C1           92.560     47.340    266.464 aa            1 LIG       -0.307730
      2 C2           91.603     48.333    266.662 ab            1 LIG        0.281641
      3 C3           91.966     49.528    267.283 ad            1 LIG       -0.243027
      4 C4           93.281     49.804    267.682 ae            1 LIG       -0.002440
      5 C5           93.890     47.544    266.903 af            1 LIG        0.292939
      6 C6           94.268     48.786    267.506 ah            1 LIG        0.244215
      7 N1           95.559     48.966    267.929 ai            1 LIG       -0.489103
      8 C7           96.448     47.958    267.735 aj            1 LIG        0.162795
      9 C8           96.060     46.747    267.175 ak            1 LIG        0.170244
     10 N2           94.796     46.536    266.751 an            1 LIG       -0.495183
     11 C9           93.593     51.105    268.326 ao            1 LIG        0.066918
     12 N3           90.255     48.150    266.310 ap            1 LIG       -0.548259
     13 C10          94.580     51.952    267.797 aq            1 LIG       -0.183224
     14 C11          94.879     53.190    268.374 av            1 LIG       -0.196304
     15 C12          92.891     51.448    269.480 aw            1 LIG       -0.237040
     16 C13          93.217     52.668    270.068 ax            1 LIG        0.062461
     17 C14          94.165     53.569    269.512 ay            1 LIG        0.068424
     18 C15          94.174     54.731    270.354 az            1 LIG       -0.221464
     19 C16          93.274     54.490    271.362 bb            1 LIG       -0.138841
     20 N4           92.745     53.241    271.229 bc            1 LIG        0.034176
     21 C17          91.820     52.641    272.184 bd            1 LIG       -0.189372
     22 C18          89.623     47.365    265.324 bf            1 LIG        0.240752
     23 C19          88.289     46.897    265.475 bg            1 LIG       -0.069110
     24 C20          87.710     46.173    264.415 bh            1 LIG       -0.190594
     25 C21          88.411     45.909    263.245 bj            1 LIG       -0.150213
     26 C22          89.714     46.364    263.105 bk            1 LIG       -0.132515
     27 C23          90.312     47.090    264.133 bl            1 LIG       -0.210805
     28 C24          87.458     47.155    266.721 bm            1 LIG        0.751762
     29 O1           87.719     48.049    267.518 bn            1 LIG       -0.640869
     30 N5           86.408     46.362    266.936 bo            1 LIG       -0.925891
     31 H1           92.272     46.389    266.037 bp            1 LIG        0.165548
     32 H2           91.210     50.283    267.451 bq            1 LIG        0.154736
     33 H3           97.464     48.140    268.045 bs            1 LIG        0.048948
     34 H4           96.770     45.947    267.012 bt            1 LIG        0.052765
     35 H5           89.589     48.632    266.904 bu            1 LIG        0.375425
     36 H6           95.103     51.653    266.894 bv            1 LIG        0.136047
     37 H7           95.628     53.830    267.925 bw            1 LIG        0.136874
     38 H8           92.131     50.800    269.914 bx            1 LIG        0.161104
     39 H9           94.783     55.608    270.236 by            1 LIG        0.140376
     40 H10          92.991     55.087    272.213 bz            1 LIG        0.145256
     41 H11          91.602     53.302    273.033 cb            1 LIG        0.095168
     42 H12          92.250     51.725    272.586 ci            1 LIG        0.095168
     43 H13          90.883     52.386    271.690 cj            1 LIG        0.095168
     44 H14          86.694     45.808    264.472 ck            1 LIG        0.140319
     45 H15          87.934     45.344    262.457 cm            1 LIG        0.138861
     46 H16          90.251     46.154    262.192 cn            1 LIG        0.145107
     47 H17          91.319     47.445    263.987 ct            1 LIG        0.156042
     48 H18          85.841     46.492    267.758 cw            1 LIG        0.406373
     49 H19          86.199     45.615    266.291 da            1 LIG        0.406373
@<TRIPOS>BOND
        1  1  2  2
        2  1  5  1
        3  1  31  1
        4  2  3  1
        5  2  12  1
        6  3  4  2
        7  3  32  1
        8  4  6  1
        9  4  11  1
        10  5  6  2
        11  5  10  1
        12  6  7  1
        13  7  8  2
        14  8  9  1
        15  8  33  1
        16  9  10  2
        17  9  34  1
        18  11  13  2
        19  11  15  1
        20  12  22  1
        21  12  35  1
        22  13  14  1
        23  13  36  1
        24  14  17  2
        25  14  37  1
        26  15  16  2
        27  15  38  1
        28  16  17  1
        29  16  20  1
        30  17  18  1
        31  18  19  2
        32  18  39  1
        33  19  20  1
        34  19  40  1
        35  20  21  1
        36  21  41  1
        37  21  42  1
        38  21  43  1
        39  22  23  2
        40  22  27  1
        41  23  24  1
        42  23  28  1
        43  24  25  2
        44  24  44  1
        45  25  26  1
        46  25  45  1
        47  26  27  2
        48  26  46  1
        49  27  47  1
        50  28  29  2
        51  28  30  1
        52  30  48  1
        53  30  49  1
@<TRIPOS>SUBSTRUCTURE
       1 LIG             1 RESIDUE    0 **** ROOT      0
