@<TRIPOS>MOLECULE
LIG
37 39
SMALL
USER_CHARGES
@<TRIPOS>ATOM
      1 C1          -14.640    -14.684    -27.555 aa            1 LIG       -0.202591
      2 C2          -15.175    -15.555    -26.604 ab            1 LIG        0.237701
      3 C3          -14.744    -13.306    -27.356 ad            1 LIG       -0.128977
      4 C4          -15.870    -15.061    -25.492 ae            1 LIG       -0.116114
      5 N1          -14.969    -16.930    -26.757 af            1 LIG       -0.492984
      6 C5          -15.373    -12.809    -26.213 ah            1 LIG       -0.200818
      7 C6          -15.934    -13.687    -25.280 ai            1 LIG        0.121510
      8 C7          -16.508    -16.063    -24.539 aj            1 LIG        0.635362
      9 N2          -16.180    -17.328    -24.852 ak            1 LIG       -0.412477
     10 O1          -17.276    -15.854    -23.598 an            1 LIG       -0.624746
     11 C8          -15.432    -17.788    -25.908 ao            1 LIG        0.334141
     12 C9          -15.235    -19.230    -26.021 ap            1 LIG        0.099439
     13 C10         -14.569    -19.736    -27.140 aq            1 LIG       -0.186312
     14 C11         -14.373    -21.097    -27.270 av            1 LIG       -0.190344
     15 C12         -14.851    -21.965    -26.291 aw            1 LIG        0.044073
     16 C13         -15.507    -21.463    -25.166 ax            1 LIG       -0.190344
     17 C14         -15.707    -20.104    -25.033 ay            1 LIG       -0.186312
     18 C15         -14.589    -23.453    -26.410 az            1 LIG        0.477405
     19 O2          -14.242    -23.878    -27.693 bb            1 LIG       -0.728387
     20 C16         -15.843    -24.271    -26.221 bc            1 LIG       -0.306675
     21 C17         -13.446    -23.822    -25.477 bd            1 LIG       -0.306675
     22 Cl1         -16.648    -13.076    -23.854 bf            1 LIG       -0.093716
     23 H1          -14.121    -15.071    -28.419 bg            1 LIG        0.170116
     24 H2          -14.312    -12.619    -28.073 bh            1 LIG        0.162881
     25 H3          -15.416    -11.742    -26.045 bj            1 LIG        0.172785
     26 H4          -16.648    -18.005    -24.267 bk            1 LIG        0.325721
     27 H5          -14.192    -19.086    -27.917 bl            1 LIG        0.156312
     28 H6          -13.837    -21.466    -28.130 bm            1 LIG        0.158976
     29 H7          -15.857    -22.113    -24.378 bn            1 LIG        0.158976
     30 H8          -16.222    -19.758    -24.148 bo            1 LIG        0.156312
     31 H9          -14.112    -24.832    -27.662 bp            1 LIG        0.462304
     32 H10         -16.641    -23.891    -26.863 bq            1 LIG        0.082243
     33 H11         -16.171    -24.263    -25.183 bs            1 LIG        0.082243
     34 H12         -15.713    -25.328    -26.465 bt            1 LIG        0.082243
     35 H13         -12.602    -23.144    -25.598 bu            1 LIG        0.082243
     36 H14         -13.093    -24.820    -25.712 bv            1 LIG        0.082243
     37 H15         -13.742    -23.793    -24.428 bw            1 LIG        0.082243
@<TRIPOS>BOND
        1  1  2  2
        2  1  3  1
        3  1  23  1
        4  2  4  1
        5  2  5  1
        6  3  6  2
        7  3  24  1
        8  4  7  2
        9  4  8  1
        10  5  11  2
        11  6  7  1
        12  6  25  1
        13  7  22  1
        14  8  9  1
        15  8  10  2
        16  9  11  1
        17  9  26  1
        18  11  12  1
        19  12  13  2
        20  12  17  1
        21  13  14  1
        22  13  27  1
        23  14  15  2
        24  14  28  1
        25  15  16  1
        26  15  18  1
        27  16  17  2
        28  16  29  1
        29  17  30  1
        30  18  19  1
        31  18  20  1
        32  18  21  1
        33  19  31  1
        34  20  32  1
        35  20  33  1
        36  20  34  1
        37  21  35  1
        38  21  36  1
        39  21  37  1
@<TRIPOS>SUBSTRUCTURE
       1 LIG             1 RESIDUE    0 **** ROOT      0
