@<TRIPOS>MOLECULE
LIG
48 52
SMALL
USER_CHARGES
@<TRIPOS>ATOM
      1 C1           -4.257     -3.105     13.569 aa            1 LIG        0.065857
      2 O1           -3.873     -2.362     14.715 ab            1 LIG       -0.354673
      3 C2           -2.525     -2.112     14.816 ad            1 LIG        0.190169
      4 C3           -1.747     -2.870     15.681 ae            1 LIG       -0.222693
      5 C4           -0.390     -2.611     15.814 af            1 LIG       -0.223920
      6 C5            0.221     -1.584     15.087 ah            1 LIG        0.272959
      7 N1            1.605     -1.360     15.326 ai            1 LIG       -0.568971
      8 C6            2.533     -0.440     14.764 aj            1 LIG        0.445440
      9 N2            2.175      0.379     13.731 ak            1 LIG       -0.557456
     10 C7            3.109      1.239     13.218 an            1 LIG        0.212025
     11 C8            4.416      1.283     13.700 ao            1 LIG       -0.119296
     12 N3            4.744      0.493     14.757 ap            1 LIG        0.062518
     13 C9            5.897      0.381     15.486 aq            1 LIG       -0.164418
     14 C10           5.592     -0.529     16.525 av            1 LIG        0.030357
     15 N4            4.378     -1.041     16.370 aw            1 LIG       -0.518326
     16 C11           3.837     -0.391     15.328 ax            1 LIG        0.171737
     17 C12           2.635      2.160     12.121 ay            1 LIG        0.102457
     18 C13           3.542      2.640     11.165 az            1 LIG       -0.204107
     19 C14           3.149      3.462     10.112 bb            1 LIG       -0.194489
     20 C15           1.804      3.821     10.012 bc            1 LIG        0.071147
     21 C16           1.022      4.617      9.081 bd            1 LIG       -0.217284
     22 C17          -0.268      4.593      9.538 bf            1 LIG       -0.128401
     23 N5           -0.350      3.867     10.667 bg            1 LIG       -0.187354
     24 C18           0.881      3.353     11.006 bh            1 LIG        0.071373
     25 C19           1.270      2.532     12.070 bj            1 LIG       -0.256859
     26 C20          -0.555     -0.819     14.191 bk            1 LIG       -0.299348
     27 C21          -1.943     -1.087     14.060 bl            1 LIG        0.201005
     28 O2           -2.750     -0.352     13.207 bm            1 LIG       -0.351676
     29 C22          -2.228      0.647     12.351 bn            1 LIG        0.062544
     30 H1           -5.336     -3.253     13.586 bo            1 LIG        0.054453
     31 H2           -3.788     -4.090     13.558 bp            1 LIG        0.054453
     32 H3           -4.011     -2.582     12.643 bq            1 LIG        0.054453
     33 H4           -2.198     -3.661     16.262 bs            1 LIG        0.154144
     34 H5            0.199     -3.204     16.500 bt            1 LIG        0.143990
     35 H6            1.993     -1.939     16.055 bu            1 LIG        0.363005
     36 H7            5.177      1.960     13.337 bv            1 LIG        0.121213
     37 H8            6.784      0.958     15.276 bw            1 LIG        0.147325
     38 H9            6.232     -0.806     17.348 bx            1 LIG        0.146395
     39 H10           4.583      2.347     11.227 by            1 LIG        0.134120
     40 H11           3.865      3.801      9.384 bz            1 LIG        0.141528
     41 H12           1.365      5.128      8.206 cb            1 LIG        0.145399
     42 H13          -1.163      5.053      9.138 ci            1 LIG        0.149526
     43 H14          -1.221      3.743     11.156 cj            1 LIG        0.283862
     44 H15           0.574      2.199     12.812 ck            1 LIG        0.149033
     45 H16          -0.110     -0.029     13.623 cm            1 LIG        0.196482
     46 H17          -3.048      1.073     11.770 cn            1 LIG        0.056767
     47 H18          -1.506      0.234     11.649 ct            1 LIG        0.056767
     48 H19          -1.779      1.453     12.928 cw            1 LIG        0.056767
@<TRIPOS>BOND
        1  1  2  1
        2  1  30  1
        3  1  31  1
        4  1  32  1
        5  2  3  1
        6  3  4  2
        7  3  27  1
        8  4  5  1
        9  4  33  1
        10  5  6  2
        11  5  34  1
        12  6  7  1
        13  6  26  1
        14  7  8  1
        15  7  35  1
        16  8  9  2
        17  8  16  1
        18  9  10  1
        19  10  11  2
        20  10  17  1
        21  11  12  1
        22  11  36  1
        23  12  13  1
        24  12  16  1
        25  13  14  2
        26  13  37  1
        27  14  15  1
        28  14  38  1
        29  15  16  2
        30  17  18  2
        31  17  25  1
        32  18  19  1
        33  18  39  1
        34  19  20  2
        35  19  40  1
        36  20  21  1
        37  20  24  1
        38  21  22  2
        39  21  41  1
        40  22  23  1
        41  22  42  1
        42  23  24  1
        43  23  43  1
        44  24  25  2
        45  25  44  1
        46  26  27  2
        47  26  45  1
        48  27  28  1
        49  28  29  1
        50  29  46  1
        51  29  47  1
        52  29  48  1
@<TRIPOS>SUBSTRUCTURE
       1 LIG             1 RESIDUE    0 **** ROOT      0
