@<TRIPOS>MOLECULE
LIG
40 42
SMALL
USER_CHARGES
@<TRIPOS>ATOM
      1 N1           24.549     41.410      2.958 aa            1 LIG       -0.485746
      2 C1           24.821     42.567      2.092 ab            1 LIG        0.056572
      3 C2           25.901     43.484      2.707 ad            1 LIG       -0.077727
      4 C3           27.201     42.720      3.016 ae            1 LIG        0.331677
      5 C4           26.899     41.403      3.743 af            1 LIG       -0.077727
      6 C5           25.771     40.593      3.075 ah            1 LIG        0.056572
      7 C6           19.680     40.513      5.564 ai            1 LIG        0.015581
      8 C7           19.388     40.806      6.910 aj            1 LIG        0.052125
      9 C8           18.090     40.606      7.405 ak            1 LIG        0.106372
     10 C9           17.098     40.087      6.571 an            1 LIG       -0.198564
     11 C10          17.389     39.777      5.245 ao            1 LIG       -0.138256
     12 C11          18.661     40.016      4.743 ap            1 LIG       -0.188261
     13 C12          20.997     40.760      4.963 aq            1 LIG       -0.127186
     14 C13          21.177     41.813      4.053 av            1 LIG        0.221197
     15 N2           22.335     42.047      3.413 aw            1 LIG       -0.631922
     16 C14          23.373     41.218      3.687 ax            1 LIG        0.785706
     17 N3           23.313     40.183      4.578 ay            1 LIG       -0.657236
     18 C15          22.134     39.963      5.201 az            1 LIG        0.611567
     19 Cl1          17.678     41.059      9.021 bb            1 LIG       -0.105124
     20 Cl2          20.610     41.501      7.930 bc            1 LIG       -0.084440
     21 N4           22.082     38.885      6.076 bd            1 LIG       -0.956967
     22 N5           28.096     43.610      3.924 bf            1 LIG       -0.658934
     23 H1           23.936     43.180      1.913 bg            1 LIG        0.085747
     24 H2           25.141     42.214      1.110 bh            1 LIG        0.085747
     25 H3           26.102     44.358      2.085 bj            1 LIG        0.048081
     26 H4           25.476     43.915      3.614 bk            1 LIG        0.048081
     27 H5           27.808     40.816      3.886 bl            1 LIG        0.048081
     28 H6           26.557     41.635      4.746 bm            1 LIG        0.048081
     29 H7           25.611     39.673      3.628 bn            1 LIG        0.085747
     30 H8           26.083     40.292      2.075 bo            1 LIG        0.085747
     31 H9           16.083     39.977      6.930 bp            1 LIG        0.179245
     32 H10          16.630     39.392      4.581 bq            1 LIG        0.166746
     33 H11          18.872     39.781      3.709 bs            1 LIG        0.169170
     34 H12          28.256     44.491      3.440 bt            1 LIG        0.390907
     35 H13          27.646     43.815      4.800 bu            1 LIG        0.390907
     36 H14          22.951     38.401      6.294 bv            1 LIG        0.413146
     37 H15          20.364     42.483      3.839 bw            1 LIG        0.113260
     38 H16          27.675     42.467      2.065 bx            1 LIG       -0.012022
     39 H17          21.250     38.704      6.609 by            1 LIG        0.413146
     40 H18          28.984     43.173      4.112 bz            1 LIG        0.390907
@<TRIPOS>BOND
        1  1  2  1
        2  1  6  1
        3  1  16  1
        4  2  3  1
        5  2  23  1
        6  2  24  1
        7  3  4  1
        8  3  25  1
        9  3  26  1
        10  4  5  1
        11  4  22  1
        12  4  38  1
        13  5  6  1
        14  5  27  1
        15  5  28  1
        16  6  29  1
        17  6  30  1
        18  7  8  2
        19  7  12  1
        20  7  13  1
        21  8  9  1
        22  8  20  1
        23  9  10  2
        24  9  19  1
        25  10  11  1
        26  10  31  1
        27  11  12  2
        28  11  32  1
        29  12  33  1
        30  13  14  2
        31  13  18  1
        32  14  15  1
        33  14  37  1
        34  15  16  2
        35  16  17  1
        36  17  18  2
        37  18  21  1
        38  21  36  1
        39  21  39  1
        40  22  34  1
        41  22  35  1
        42  22  40  1
@<TRIPOS>SUBSTRUCTURE
       1 LIG             1 RESIDUE    0 **** ROOT      0
