@<TRIPOS>MOLECULE
LIG
52 57
SMALL
USER_CHARGES
@<TRIPOS>ATOM
      1 C1           -6.044     -4.460     16.296 aa            1 LIG       -0.277452
      2 C2           -5.624     -3.400     15.273 ab            1 LIG        0.270324
      3 O1           -6.733     -2.988     14.508 ad            1 LIG       -0.695922
      4 C3           -4.783     -2.267     15.835 ae            1 LIG       -0.014937
      5 N1           -3.837     -2.394     14.706 af            1 LIG       -0.394220
      6 C4           -4.387     -3.746     14.463 ah            1 LIG       -0.014937
      7 C5           -2.474     -2.099     14.789 ai            1 LIG        0.261258
      8 C6           -1.893     -1.074     14.043 aj            1 LIG       -0.211769
      9 C7           -0.535     -0.807     14.196 ak            1 LIG       -0.211497
     10 C8            0.233     -1.562     15.099 an            1 LIG        0.268498
     11 N2            1.595     -1.322     15.344 ao            1 LIG       -0.571756
     12 C9            2.532     -0.432     14.784 ap            1 LIG        0.445600
     13 N3            2.183      0.386     13.753 aq            1 LIG       -0.558158
     14 C10           3.100      1.239     13.214 av            1 LIG        0.211542
     15 C11           4.409      1.289     13.697 aw            1 LIG       -0.118360
     16 N4            4.739      0.497     14.756 ax            1 LIG        0.061770
     17 C12           5.891      0.384     15.487 ay            1 LIG       -0.164094
     18 C13           5.600     -0.540     16.497 az            1 LIG        0.030547
     19 N5            4.390     -1.050     16.386 bb            1 LIG       -0.517652
     20 C14           3.829     -0.391     15.336 bc            1 LIG        0.172460
     21 C15           2.627      2.151     12.121 bd            1 LIG        0.110888
     22 C16           3.537      2.635     11.163 bf            1 LIG       -0.201014
     23 C17           3.149      3.462     10.108 bg            1 LIG       -0.191109
     24 C18           1.801      3.821     10.016 bh            1 LIG        0.061660
     25 C19           0.999      4.598      9.127 bj            1 LIG       -0.012796
     26 N6           -0.250      4.617      9.513 bk            1 LIG       -0.402657
     27 N7           -0.332      3.884     10.634 bl            1 LIG       -0.020407
     28 C20           0.887      3.353     10.995 bm            1 LIG        0.070995
     29 C21           1.273      2.525     12.051 bn            1 LIG       -0.253190
     30 C22          -0.367     -2.592     15.826 bo            1 LIG       -0.211497
     31 C23          -1.717     -2.855     15.674 bp            1 LIG       -0.211769
     32 H1           -5.205     -4.798     16.904 bq            1 LIG        0.090516
     33 H2           -6.805     -4.066     16.970 bs            1 LIG        0.090516
     34 H3           -6.468     -5.332     15.797 bt            1 LIG        0.090516
     35 H4           -6.405     -2.332     13.888 bu            1 LIG        0.470529
     36 H5           -4.328     -2.486     16.803 bv            1 LIG        0.076928
     37 H6           -5.289     -1.302     15.898 bw            1 LIG        0.076928
     38 H7           -4.573     -3.976     13.413 bx            1 LIG        0.076928
     39 H8           -3.785     -4.548     14.892 by            1 LIG        0.076928
     40 H9           -2.493     -0.492     13.360 bz            1 LIG        0.137762
     41 H10          -0.118     -0.007     13.613 cb            1 LIG        0.157575
     42 H11           2.010     -1.874     16.081 ci            1 LIG        0.360630
     43 H12           5.169      1.964     13.345 cj            1 LIG        0.120861
     44 H13           6.777      0.962     15.277 ck            1 LIG        0.147538
     45 H14           6.273     -0.867     17.282 cm            1 LIG        0.146892
     46 H15           4.572      2.332     11.212 cn            1 LIG        0.137574
     47 H16           3.863      3.805      9.374 ct            1 LIG        0.142882
     48 H17           1.316      5.125      8.241 cw            1 LIG        0.149358
     49 H18          -1.216      3.763     11.102 da            1 LIG        0.284741
     50 H19           0.563      2.167     12.782 db            1 LIG        0.158712
     51 H20           0.213     -3.178     16.523 dc            1 LIG        0.157575
     52 H21          -2.169     -3.642     16.257 dd            1 LIG        0.137762
@<TRIPOS>BOND
        1  1  2  1
        2  1  32  1
        3  1  33  1
        4  1  34  1
        5  2  3  1
        6  2  4  1
        7  2  6  1
        8  3  35  1
        9  4  5  1
        10  4  36  1
        11  4  37  1
        12  5  6  1
        13  5  7  1
        14  6  38  1
        15  6  39  1
        16  7  8  2
        17  7  31  1
        18  8  9  1
        19  8  40  1
        20  9  10  2
        21  9  41  1
        22  10  11  1
        23  10  30  1
        24  11  12  1
        25  11  42  1
        26  12  13  2
        27  12  20  1
        28  13  14  1
        29  14  15  2
        30  14  21  1
        31  15  16  1
        32  15  43  1
        33  16  17  1
        34  16  20  1
        35  17  18  2
        36  17  44  1
        37  18  19  1
        38  18  45  1
        39  19  20  2
        40  21  22  2
        41  21  29  1
        42  22  23  1
        43  22  46  1
        44  23  24  2
        45  23  47  1
        46  24  25  1
        47  24  28  1
        48  25  26  2
        49  25  48  1
        50  26  27  1
        51  27  28  1
        52  27  49  1
        53  28  29  2
        54  29  50  1
        55  30  31  2
        56  30  51  1
        57  31  52  1
@<TRIPOS>SUBSTRUCTURE
       1 LIG             1 RESIDUE    0 **** ROOT      0
