@<TRIPOS>MOLECULE
LIG
74 77
SMALL
USER_CHARGES
@<TRIPOS>ATOM
      1 C1           11.398     -0.102     -2.157 aa            1 LIG       -0.288113
      2 C2           11.904     -0.135     -0.746 ab            1 LIG        0.230377
      3 C3           11.050      0.776      0.086 ad            1 LIG       -0.288113
      4 C4           11.858     -1.554     -0.186 ae            1 LIG        0.047752
      5 C5           10.809     -2.405     -0.540 af            1 LIG       -0.192418
      6 C6           10.774     -3.710     -0.057 ah            1 LIG       -0.219537
      7 C7           11.794     -4.183      0.761 ai            1 LIG        0.221176
      8 C8           12.866     -3.344      1.131 aj            1 LIG       -0.042896
      9 C9           12.859     -2.022      0.669 ak            1 LIG       -0.253616
     10 C10          14.016     -3.872      1.978 an            1 LIG        0.268418
     11 O1           13.809     -3.470      3.334 ao            1 LIG       -0.506204
     12 C11          14.909     -3.790      4.194 ap            1 LIG        0.256026
     13 C12          14.729     -3.077      5.549 aq            1 LIG        0.107210
     14 N1           14.393     -3.936      6.711 av            1 LIG       -0.676677
     15 S1           15.687     -4.188      7.851 aw            1 LIG        1.046021
     16 O2           15.960     -2.899      8.496 ax            1 LIG       -0.538123
     17 O3           16.769     -4.905      7.172 ay            1 LIG       -0.538123
     18 C13          14.857     -5.374      9.099 az            1 LIG       -0.110508
     19 C14          15.917     -5.992     10.005 bb            1 LIG       -0.049742
     20 C15          15.304     -6.917     11.014 bc            1 LIG        0.177217
     21 N2           16.354     -7.483     11.856 bd            1 LIG       -0.141460
     22 C16          15.757     -8.384     12.839 bf            1 LIG       -0.252582
     23 C17          17.297     -8.226     11.025 bg            1 LIG       -0.252582
     24 C18          15.080     -5.326      4.252 bh            1 LIG       -0.069434
     25 C19          15.218     -5.910      2.836 bj            1 LIG       -0.053801
     26 C20          14.104     -5.415      1.883 bk            1 LIG        0.054487
     27 C21          12.711     -6.069      2.121 bl            1 LIG        0.127382
     28 C22          12.759     -7.593      2.037 bm            1 LIG        0.076365
     29 C23          13.253     -8.207      0.881 bn            1 LIG       -0.194553
     30 C24          13.330     -9.593      0.798 bo            1 LIG       -0.134987
     31 C25          12.908    -10.367      1.873 bp            1 LIG       -0.135708
     32 C26          12.403     -9.765      3.023 bq            1 LIG       -0.134987
     33 C27          12.326     -8.376      3.108 bs            1 LIG       -0.194553
     34 N3           11.737     -5.523      1.176 bt            1 LIG       -0.566662
     35 H1           12.007     -0.760     -2.777 bu            1 LIG        0.069633
     36 H2           11.457      0.917     -2.541 bv            1 LIG        0.069633
     37 H3           10.361     -0.439     -2.180 bw            1 LIG        0.069633
     38 H4           12.922      0.253     -0.744 bx            1 LIG       -0.019425
     39 H5           11.403      0.764      1.117 by            1 LIG        0.069633
     40 H6           10.015      0.435      0.052 bz            1 LIG        0.069633
     41 H7           11.111      1.790     -0.308 cb            1 LIG        0.069633
     42 H8           10.020     -2.058     -1.191 ci            1 LIG        0.145043
     43 H9            9.957     -4.355     -0.343 cj            1 LIG        0.138355
     44 H10          13.672     -1.369      0.951 ck            1 LIG        0.127204
     45 H11          14.939     -3.428      1.603 cm            1 LIG        0.018708
     46 H12          15.806     -3.364      3.739 cn            1 LIG        0.019283
     47 H13          15.646     -2.532      5.783 ct            1 LIG        0.050910
     48 H14          13.963     -2.306      5.458 cw            1 LIG        0.050910
     49 H15          14.065     -4.832      6.364 da            1 LIG        0.397633
     50 H16          14.128     -4.795      9.664 db            1 LIG        0.077145
     51 H17          14.335     -6.148      8.541 dc            1 LIG        0.077145
     52 H18          16.644     -6.560      9.423 dd            1 LIG        0.067078
     53 H19          16.463     -5.217     10.544 de            1 LIG        0.067078
     54 H20          14.600     -6.363     11.634 df            1 LIG        0.037581
     55 H21          14.779     -7.721     10.498 dg            1 LIG        0.037581
     56 H22          15.232     -9.188     12.323 dh            1 LIG        0.161464
     57 H23          15.053     -7.829     13.459 di            1 LIG        0.161464
     58 H24          16.541     -8.806     13.467 dj            1 LIG        0.161464
     59 H25          16.772     -9.030     10.509 dk            1 LIG        0.161464
     60 H26          18.081     -8.648     11.654 dl            1 LIG        0.161464
     61 H27          17.742     -7.554     10.292 dm            1 LIG        0.161464
     62 H28          15.957     -5.593      4.842 dn            1 LIG        0.033287
     63 H29          14.218     -5.783      4.737 do            1 LIG        0.033287
     64 H30          16.182     -5.602      2.429 dp            1 LIG        0.030530
     65 H31          15.250     -6.999      2.874 dq            1 LIG        0.030530
     66 H32          14.413     -5.657      0.866 dr            1 LIG        0.000741
     67 H33          12.369     -5.793      3.120 ds            1 LIG        0.029893
     68 H34          13.572     -7.605      0.043 dt            1 LIG        0.141576
     69 H35          13.713    -10.063     -0.096 dv            1 LIG        0.146473
     70 H36          12.966    -11.444      1.812 dw            1 LIG        0.147170
     71 H37          12.073    -10.377      3.850 dx            1 LIG        0.146473
     72 H38          11.937     -7.911      4.002 dz            1 LIG        0.141576
     73 H39          10.958     -6.111      0.918 ea            1 LIG        0.329004
     74 H40          16.840     -6.738     12.334 eb            1 LIG        0.333591
@<TRIPOS>BOND
        1  1  2  1
        2  1  35  1
        3  1  36  1
        4  1  37  1
        5  2  3  1
        6  2  4  1
        7  2  38  1
        8  3  39  1
        9  3  40  1
        10  3  41  1
        11  4  5  2
        12  4  9  1
        13  5  6  1
        14  5  42  1
        15  6  7  2
        16  6  43  1
        17  7  8  1
        18  7  34  1
        19  8  9  2
        20  8  10  1
        21  9  44  1
        22  10  11  1
        23  10  26  1
        24  10  45  1
        25  11  12  1
        26  12  13  1
        27  12  24  1
        28  12  46  1
        29  13  14  1
        30  13  47  1
        31  13  48  1
        32  14  15  1
        33  14  49  1
        34  15  16  2
        35  15  17  2
        36  15  18  1
        37  18  19  1
        38  18  50  1
        39  18  51  1
        40  19  20  1
        41  19  52  1
        42  19  53  1
        43  20  21  1
        44  20  54  1
        45  20  55  1
        46  21  22  1
        47  21  23  1
        48  21  74  1
        49  22  56  1
        50  22  57  1
        51  22  58  1
        52  23  59  1
        53  23  60  1
        54  23  61  1
        55  24  25  1
        56  24  62  1
        57  24  63  1
        58  25  26  1
        59  25  64  1
        60  25  65  1
        61  26  27  1
        62  26  66  1
        63  27  28  1
        64  27  34  1
        65  27  67  1
        66  28  29  2
        67  28  33  1
        68  29  30  1
        69  29  68  1
        70  30  31  2
        71  30  69  1
        72  31  32  1
        73  31  70  1
        74  32  33  2
        75  32  71  1
        76  33  72  1
        77  34  73  1
@<TRIPOS>SUBSTRUCTURE
       1 LIG             1 RESIDUE    0 **** ROOT      0
