@<TRIPOS>MOLECULE
LIG
53 57
SMALL
USER_CHARGES
@<TRIPOS>ATOM
      1 C1           -6.372     12.356    -12.009 aa            1 LIG        0.007124
      2 C2           -6.533     11.810    -10.734 ab            1 LIG       -0.244377
      3 C3           -7.732     10.575    -13.029 ad            1 LIG       -0.205236
      4 C4           -6.990     11.763    -13.128 ae            1 LIG       -0.179130
      5 C5           -7.821     10.007    -11.756 af            1 LIG        0.070904
      6 C6           -7.248     10.618    -10.603 ah            1 LIG        0.056412
      7 C7           -7.614      9.746     -9.514 ai            1 LIG        0.098893
      8 N1           -8.269      8.722     -9.988 aj            1 LIG       -0.424505
      9 N2           -8.409      8.854    -11.299 ak            1 LIG       -0.023310
     10 C8           -7.338      9.893     -8.028 an            1 LIG        0.032191
     11 N3           -4.346     13.712    -11.514 ao            1 LIG       -0.352403
     12 C9           -5.548     13.636    -12.186 ap            1 LIG        0.669213
     13 O1           -5.957     14.540    -12.914 aq            1 LIG       -0.628631
     14 C10          -5.958     10.485     -7.736 av            1 LIG        0.089861
     15 C11          -4.807      9.763     -8.057 aw            1 LIG       -0.196169
     16 C12          -3.551     10.310     -7.809 ax            1 LIG       -0.195356
     17 C13          -3.441     11.586     -7.238 ay            1 LIG        0.107109
     18 C14          -4.591     12.302     -6.915 az            1 LIG       -0.195356
     19 C15          -5.846     11.754     -7.158 bb            1 LIG       -0.196169
     20 C16          -2.099     12.178     -6.973 bc            1 LIG        0.034259
     21 C17          -1.771     13.421     -6.442 bd            1 LIG       -0.193149
     22 N4           -0.431     13.486     -6.395 bf            1 LIG        0.227033
     23 N5            0.172     12.415     -6.830 bg            1 LIG       -0.435674
     24 C18          -0.804     11.601     -7.204 bh            1 LIG       -0.015418
     25 C19           0.389     14.598     -5.919 bj            1 LIG       -0.204342
     26 C20          -3.699     12.580    -10.835 bk            1 LIG        0.017087
     27 C21          -2.193     12.939    -10.966 bl            1 LIG        0.188052
     28 C22          -2.186     14.465    -10.944 bm            1 LIG       -0.042587
     29 C23          -3.509     14.907    -11.599 bn            1 LIG        0.027777
     30 O2           -1.650     12.442    -12.185 bo            1 LIG       -0.702422
     31 H1           -6.123     12.302     -9.870 bp            1 LIG        0.150201
     32 H2           -8.195     10.125    -13.894 bq            1 LIG        0.142767
     33 H3           -6.872     12.219    -14.104 bs            1 LIG        0.162190
     34 H4           -8.901      8.147    -11.835 bt            1 LIG        0.284953
     35 H5           -8.110     10.532     -7.593 bu            1 LIG        0.040788
     36 H6           -7.440      8.927     -7.537 bv            1 LIG        0.040788
     37 H7           -4.888      8.780     -8.501 bw            1 LIG        0.135048
     38 H8           -2.663      9.745     -8.059 bx            1 LIG        0.136425
     39 H9           -4.509     13.284     -6.477 by            1 LIG        0.136425
     40 H10          -6.731     12.315     -6.904 bz            1 LIG        0.135048
     41 H11          -2.378     14.246     -6.102 cb            1 LIG        0.149652
     42 H12          -0.607     10.621     -7.616 ci            1 LIG        0.145439
     43 H13          -0.236     15.422     -5.577 cj            1 LIG        0.105721
     44 H14           1.035     14.958     -6.724 ck            1 LIG        0.105721
     45 H15           1.020     14.266     -5.090 cm            1 LIG        0.105721
     46 H16          -3.949     12.547     -9.777 cn            1 LIG        0.070066
     47 H17          -3.899     11.628    -11.317 ct            1 LIG        0.070066
     48 H18          -1.603     12.503    -10.160 cw            1 LIG        0.052804
     49 H19          -2.122     14.824     -9.909 da            1 LIG        0.032997
     50 H20          -1.328     14.875    -11.474 db            1 LIG        0.032997
     51 H21          -3.327     15.214    -12.629 dc            1 LIG        0.049164
     52 H22          -3.969     15.719    -11.043 dd            1 LIG        0.049164
     53 H23          -0.782     12.845    -12.333 de            1 LIG        0.474174
@<TRIPOS>BOND
        1  1  2  2
        2  1  4  1
        3  1  12  1
        4  2  6  1
        5  2  31  1
        6  3  4  2
        7  3  5  1
        8  3  32  1
        9  4  33  1
        10  5  6  2
        11  5  9  1
        12  6  7  1
        13  7  8  2
        14  7  10  1
        15  8  9  1
        16  9  34  1
        17  10  14  1
        18  10  35  1
        19  10  36  1
        20  11  12  1
        21  11  26  1
        22  11  29  1
        23  12  13  2
        24  14  15  2
        25  14  19  1
        26  15  16  1
        27  15  37  1
        28  16  17  2
        29  16  38  1
        30  17  18  1
        31  17  20  1
        32  18  19  2
        33  18  39  1
        34  19  40  1
        35  20  21  2
        36  20  24  1
        37  21  22  1
        38  21  41  1
        39  22  23  1
        40  22  25  1
        41  23  24  2
        42  24  42  1
        43  25  43  1
        44  25  44  1
        45  25  45  1
        46  26  27  1
        47  26  46  1
        48  26  47  1
        49  27  28  1
        50  27  30  1
        51  27  48  1
        52  28  29  1
        53  28  49  1
        54  28  50  1
        55  29  51  1
        56  29  52  1
        57  30  53  1
@<TRIPOS>SUBSTRUCTURE
       1 LIG             1 RESIDUE    0 **** ROOT      0
