@<TRIPOS>MOLECULE
LIG
37 39
SMALL
USER_CHARGES
@<TRIPOS>ATOM
      1 O1           27.645      1.540    -11.126 aa            1 LIG       -0.703345
      2 C1           27.157      0.305    -11.639 ab            1 LIG        0.200788
      3 C2           26.515      0.381    -13.037 ad            1 LIG        0.283894
      4 C3           25.030      0.629    -12.807 ae            1 LIG        0.151694
      5 C4           24.803     -0.037    -11.470 af            1 LIG       -0.057154
      6 C5           26.015     -0.220    -10.789 ah            1 LIG       -0.028684
      7 C6           26.021     -0.762     -9.496 ai            1 LIG       -0.019738
      8 C7           24.802     -1.082     -8.897 aj            1 LIG       -0.178573
      9 C8           23.606     -0.937     -9.594 ak            1 LIG       -0.204715
     10 C9           23.602     -0.434    -10.900 an            1 LIG        0.229763
     11 O2           22.486     -0.295    -11.694 ao            1 LIG       -0.298433
     12 C10          21.242     -0.578    -11.197 ap            1 LIG        0.274075
     13 C11          20.674     -1.830    -11.404 aq            1 LIG       -0.266392
     14 C12          19.423     -2.111    -10.867 av            1 LIG        0.229766
     15 F1           18.851     -3.312    -11.059 aw            1 LIG       -0.151920
     16 C13          18.746     -1.142    -10.143 ax            1 LIG       -0.253622
     17 C14          19.286      0.124     -9.970 ay            1 LIG        0.191450
     18 C15          18.576      1.164     -9.254 az            1 LIG        0.220672
     19 C16          20.550      0.390    -10.474 bb            1 LIG       -0.259374
     20 S1           27.528     -1.064     -8.571 bc            1 LIG        1.107957
     21 O3           27.211     -1.999     -7.492 bd            1 LIG       -0.553388
     22 O4           28.600     -1.371     -9.518 bf            1 LIG       -0.553388
     23 F2           27.078      1.281    -13.851 bg            1 LIG       -0.189894
     24 N1           18.018      1.993     -8.678 bh            1 LIG       -0.363664
     25 F3           24.840      1.962    -12.652 bj            1 LIG       -0.186081
     26 F4           26.637     -0.793    -13.649 bk            1 LIG       -0.189894
     27 N2           27.936      0.466     -7.864 bl            1 LIG       -0.858855
     28 H1           28.361      1.855    -11.695 bm            1 LIG        0.508512
     29 H2           27.970     -0.419    -11.712 bn            1 LIG        0.090868
     30 H3           24.389      0.271    -13.627 bo            1 LIG        0.080635
     31 H4           24.774     -1.479     -7.894 bp            1 LIG        0.205082
     32 H5           22.691     -1.246     -9.114 bq            1 LIG        0.182456
     33 H6           21.207     -2.595    -11.943 bs            1 LIG        0.197512
     34 H7           17.810     -1.420     -9.708 bt            1 LIG        0.185450
     35 H8           21.002      1.343    -10.262 bu            1 LIG        0.167799
     36 H9           27.269      0.770     -7.155 bv            1 LIG        0.404370
     37 H10          28.175      1.182     -8.555 bw            1 LIG        0.404370
@<TRIPOS>BOND
        1  1  2  1
        2  1  28  1
        3  2  3  1
        4  2  6  1
        5  2  29  1
        6  3  4  1
        7  3  23  1
        8  3  26  1
        9  4  5  1
        10  4  25  1
        11  4  30  1
        12  5  6  2
        13  5  10  1
        14  6  7  1
        15  7  8  2
        16  7  20  1
        17  8  9  1
        18  8  31  1
        19  9  10  2
        20  9  32  1
        21  10  11  1
        22  11  12  1
        23  12  13  2
        24  12  19  1
        25  13  14  1
        26  13  33  1
        27  14  15  1
        28  14  16  2
        29  16  17  1
        30  16  34  1
        31  17  18  1
        32  17  19  2
        33  18  24  3
        34  19  35  1
        35  20  21  2
        36  20  22  2
        37  20  27  1
        38  27  36  1
        39  27  37  1
@<TRIPOS>SUBSTRUCTURE
       1 LIG             1 RESIDUE    0 **** ROOT      0
