@<TRIPOS>MOLECULE
LIG
37 39
SMALL
USER_CHARGES
@<TRIPOS>ATOM
      1 C1          -14.564    -14.638    -27.527 aa            1 LIG        0.159648
      2 C2          -15.148    -15.511    -26.602 ab            1 LIG        0.172558
      3 C3          -14.652    -13.259    -27.324 ad            1 LIG       -0.202540
      4 C4          -15.883    -14.994    -25.527 ae            1 LIG       -0.056424
      5 N1          -14.961    -16.898    -26.734 af            1 LIG       -0.482530
      6 C5          -15.343    -12.754    -26.223 ah            1 LIG       -0.137320
      7 C6          -15.978    -13.619    -25.328 ai            1 LIG       -0.182805
      8 C7          -16.556    -15.964    -24.588 aj            1 LIG        0.631758
      9 N2          -16.197    -17.247    -24.841 ak            1 LIG       -0.409104
     10 O1          -17.364    -15.676    -23.712 an            1 LIG       -0.628911
     11 C8          -15.454    -17.745    -25.888 ao            1 LIG        0.332413
     12 C9          -15.299    -19.206    -26.028 ap            1 LIG        0.099763
     13 C10         -15.827    -20.101    -25.085 aq            1 LIG       -0.186173
     14 C11         -15.645    -21.470    -25.239 av            1 LIG       -0.190172
     15 C12         -14.930    -21.965    -26.332 aw            1 LIG        0.044529
     16 C13         -14.423    -21.076    -27.281 ax            1 LIG       -0.190172
     17 C14         -14.608    -19.713    -27.133 ay            1 LIG       -0.186173
     18 C15         -14.576    -23.451    -26.406 az            1 LIG        0.477496
     19 O2          -14.238    -23.889    -27.695 bb            1 LIG       -0.728254
     20 C16         -15.738    -24.389    -26.056 bc            1 LIG       -0.306574
     21 C17         -13.331    -23.657    -25.543 bd            1 LIG       -0.306574
     22 F1          -13.863    -15.110    -28.586 bf            1 LIG       -0.154540
     23 H1          -14.170    -12.579    -28.014 bg            1 LIG        0.172245
     24 H2          -15.380    -11.686    -26.067 bh            1 LIG        0.162158
     25 H3          -16.526    -13.224    -24.484 bj            1 LIG        0.178688
     26 H4          -16.680    -17.915    -24.255 bk            1 LIG        0.325457
     27 H5          -16.357    -19.756    -24.210 bl            1 LIG        0.158640
     28 H6          -16.021    -22.139    -24.479 bm            1 LIG        0.159276
     29 H7          -13.844    -21.430    -28.120 bn            1 LIG        0.159276
     30 H8          -14.192    -19.057    -27.885 bo            1 LIG        0.158640
     31 H9          -14.015    -24.824    -27.645 bp            1 LIG        0.462470
     32 H10         -16.670    -24.055    -26.505 bq            1 LIG        0.082208
     33 H11         -15.875    -24.439    -24.978 bs            1 LIG        0.082208
     34 H12         -15.573    -25.422    -26.372 bt            1 LIG        0.082208
     35 H13         -12.538    -22.961    -25.813 bu            1 LIG        0.082208
     36 H14         -12.938    -24.663    -25.682 bv            1 LIG        0.082208
     37 H15         -13.541    -23.521    -24.480 bw            1 LIG        0.082208
@<TRIPOS>BOND
        1  1  2  2
        2  1  3  1
        3  1  22  1
        4  2  4  1
        5  2  5  1
        6  3  6  2
        7  3  23  1
        8  4  7  2
        9  4  8  1
        10  5  11  2
        11  6  7  1
        12  6  24  1
        13  7  25  1
        14  8  9  1
        15  8  10  2
        16  9  11  1
        17  9  26  1
        18  11  12  1
        19  12  13  2
        20  12  17  1
        21  13  14  1
        22  13  27  1
        23  14  15  2
        24  14  28  1
        25  15  16  1
        26  15  18  1
        27  16  17  2
        28  16  29  1
        29  17  30  1
        30  18  19  1
        31  18  20  1
        32  18  21  1
        33  19  31  1
        34  20  32  1
        35  20  33  1
        36  20  34  1
        37  21  35  1
        38  21  36  1
        39  21  37  1
@<TRIPOS>SUBSTRUCTURE
       1 LIG             1 RESIDUE    0 **** ROOT      0
