@<TRIPOS>MOLECULE
LIG
41 44
SMALL
USER_CHARGES
@<TRIPOS>ATOM
      1 C1           -6.381     12.369    -12.012 aa            1 LIG        0.002984
      2 C2           -6.511     11.812    -10.736 ab            1 LIG       -0.226158
      3 C3           -7.730     10.582    -13.030 ad            1 LIG       -0.205678
      4 C4           -6.999     11.778    -13.126 ae            1 LIG       -0.193497
      5 C5           -7.825     10.017    -11.754 af            1 LIG        0.070623
      6 C6           -7.241     10.627    -10.601 ah            1 LIG        0.057307
      7 C7           -7.609      9.751     -9.510 ai            1 LIG        0.101593
      8 N1           -8.285      8.740     -9.985 aj            1 LIG       -0.422619
      9 N2           -8.419      8.867    -11.298 ak            1 LIG       -0.025260
     10 C8           -7.322      9.887     -8.024 an            1 LIG        0.033276
     11 N3           -4.383     13.620    -11.493 ao            1 LIG       -0.497374
     12 C9           -3.424     14.728    -11.579 ap            1 LIG       -0.133209
     13 C10          -5.537     13.614    -12.198 aq            1 LIG        0.698412
     14 O1           -5.877     14.516    -12.965 av            1 LIG       -0.626664
     15 C11          -5.952     10.501     -7.727 aw            1 LIG        0.095204
     16 C12          -5.880     11.772     -7.154 ax            1 LIG       -0.262560
     17 C13          -4.613     12.316     -6.912 ay            1 LIG        0.058524
     18 C14          -3.442     11.562     -7.243 az            1 LIG        0.055316
     19 C15          -3.506     10.284     -7.806 bb            1 LIG       -0.191565
     20 C16          -4.793      9.778     -8.042 bc            1 LIG       -0.202949
     21 N4           -4.094     13.546     -6.366 bd            1 LIG        0.195486
     22 N5           -2.788     13.529     -6.374 bf            1 LIG       -0.422736
     23 C17          -2.383     12.368     -6.882 bg            1 LIG       -0.014992
     24 H1           -6.056     12.286     -9.879 bh            1 LIG        0.169288
     25 H2           -8.182     10.123    -13.898 bj            1 LIG        0.139102
     26 H3           -6.875     12.238    -14.096 bk            1 LIG        0.142220
     27 H4           -8.914      8.160    -11.833 bl            1 LIG        0.283556
     28 H5           -8.085     10.549     -7.605 bm            1 LIG        0.042630
     29 H6           -7.451      8.940     -7.498 bn            1 LIG        0.042630
     30 H7           -4.115     12.806    -10.957 bo            1 LIG        0.287956
     31 H8           -2.821     14.739    -10.672 bp            1 LIG        0.094898
     32 H9           -3.888     15.711    -11.672 bq            1 LIG        0.094898
     33 H10          -2.720     14.604    -12.405 bs            1 LIG        0.094898
     34 H11          -6.777     12.319     -6.913 bt            1 LIG        0.136211
     35 H12          -2.615      9.713     -8.045 bu            1 LIG        0.140675
     36 H13          -4.899      8.798     -8.480 bv            1 LIG        0.138836
     37 H14          -1.369     12.025     -7.027 bw            1 LIG        0.143911
     38 C18          -5.048     14.627     -5.887 bx            1 LIG       -0.196985
     39 H15          -4.477     15.476     -5.510 by            1 LIG        0.100605
     40 H16          -5.676     14.952     -6.716 bz            1 LIG        0.100605
     41 H17          -5.676     14.230     -5.089 cb            1 LIG        0.100605
@<TRIPOS>BOND
        1  1  2  2
        2  1  4  1
        3  1  13  1
        4  2  6  1
        5  2  24  1
        6  3  4  2
        7  3  5  1
        8  3  25  1
        9  4  26  1
        10  5  6  2
        11  5  9  1
        12  6  7  1
        13  7  8  2
        14  7  10  1
        15  8  9  1
        16  9  27  1
        17  10  15  1
        18  10  28  1
        19  10  29  1
        20  11  12  1
        21  11  13  1
        22  11  30  1
        23  12  31  1
        24  12  32  1
        25  12  33  1
        26  13  14  2
        27  15  16  2
        28  15  20  1
        29  16  17  1
        30  16  34  1
        31  17  18  2
        32  17  21  1
        33  18  19  1
        34  18  23  1
        35  19  20  2
        36  19  35  1
        37  20  36  1
        38  21  22  1
        39  21  38  1
        40  22  23  2
        41  23  37  1
        42  38  39  1
        43  38  40  1
        44  38  41  1
@<TRIPOS>SUBSTRUCTURE
       1 LIG             1 RESIDUE    0 **** ROOT      0
