@<TRIPOS>MOLECULE
LIG
43 45
SMALL
USER_CHARGES
@<TRIPOS>ATOM
      1 N1           24.546     41.395      2.926 aa            1 LIG       -0.491921
      2 C1           25.750     40.551      3.068 ab            1 LIG        0.063110
      3 C2           26.871     41.339      3.737 ad            1 LIG       -0.068481
      4 C3           27.192     42.696      3.059 ae            1 LIG        0.080433
      5 C4           25.897     43.471      2.712 af            1 LIG       -0.068481
      6 C5           24.815     42.580      2.087 ah            1 LIG        0.063110
      7 C6           19.684     40.512      5.535 ai            1 LIG       -0.066085
      8 C7           19.397     40.810      6.878 aj            1 LIG        0.066379
      9 C8           18.097     40.611      7.364 ak            1 LIG        0.105079
     10 C9           17.107     40.104      6.522 an            1 LIG       -0.198044
     11 C10          17.399     39.801      5.196 ao            1 LIG       -0.140429
     12 C11          18.678     40.017      4.703 ap            1 LIG       -0.185876
     13 C12          21.025     40.729      4.949 aq            1 LIG        0.310188
     14 N2           21.068     41.759      4.071 av            1 LIG       -0.521608
     15 C13          22.239     42.000      3.442 aw            1 LIG        0.122239
     16 C14          23.375     41.225      3.668 ax            1 LIG        0.530542
     17 N3           23.324     40.193      4.564 ay            1 LIG       -0.621034
     18 C15          22.153     39.951      5.208 az            1 LIG        0.528897
     19 Cl1          17.677     41.013      8.991 bb            1 LIG       -0.100486
     20 Cl2          20.623     41.465      7.918 bc            1 LIG       -0.087634
     21 N4           22.127     38.883      6.104 bd            1 LIG       -0.959597
     22 C16          28.163     43.534      3.892 bf            1 LIG        0.107919
     23 H1           25.559     39.676      3.693 bg            1 LIG        0.068502
     24 H2           26.097     40.175      2.106 bh            1 LIG        0.068502
     25 H3           27.791     40.766      3.861 bj            1 LIG        0.024401
     26 H4           26.513     41.483      4.753 bk            1 LIG        0.024401
     27 H5           26.111     44.326      2.067 bl            1 LIG        0.024401
     28 H6           25.452     43.927      3.598 bm            1 LIG        0.024401
     29 H7           23.941     43.211      1.964 bn            1 LIG        0.068502
     30 H8           25.080     42.277      1.073 bo            1 LIG        0.068502
     31 H9           16.099     39.973      6.887 bp            1 LIG        0.180060
     32 H10          18.892     39.780      3.669 bq            1 LIG        0.160394
     33 H11          22.195     42.816      2.740 bs            1 LIG        0.048733
     34 H12          22.984     38.369      6.289 bt            1 LIG        0.411471
     35 H13          21.283     38.694      6.623 bu            1 LIG        0.411471
     36 H14          16.639     39.408      4.540 bv            1 LIG        0.165349
     37 H15          29.221     43.230      3.902 bw            1 LIG        0.068273
     38 N5           27.679     43.517      5.305 bx            1 LIG       -0.406903
     39 H16          27.975     44.597      3.951 by            1 LIG        0.068273
     40 H17          28.318     44.090      5.856 bz            1 LIG        0.331696
     41 H18          26.756     43.932      5.391 cb            1 LIG        0.331696
     42 H19          27.659     42.468      2.100 ci            1 LIG        0.057957
     43 H20          27.693     42.603      5.739 cj            1 LIG        0.331696
@<TRIPOS>BOND
        1  1  2  1
        2  1  6  1
        3  1  16  1
        4  2  3  1
        5  2  23  1
        6  2  24  1
        7  3  4  1
        8  3  25  1
        9  3  26  1
        10  4  5  1
        11  4  22  1
        12  4  42  1
        13  5  6  1
        14  5  27  1
        15  5  28  1
        16  6  29  1
        17  6  30  1
        18  7  8  2
        19  7  12  1
        20  7  13  1
        21  8  9  1
        22  8  20  1
        23  9  10  2
        24  9  19  1
        25  10  11  1
        26  10  31  1
        27  11  12  2
        28  11  36  1
        29  12  32  1
        30  13  14  2
        31  13  18  1
        32  14  15  1
        33  15  16  2
        34  15  33  1
        35  16  17  1
        36  17  18  2
        37  18  21  1
        38  21  34  1
        39  21  35  1
        40  22  37  1
        41  22  38  1
        42  22  39  1
        43  38  40  1
        44  38  41  1
        45  38  43  1
@<TRIPOS>SUBSTRUCTURE
       1 LIG             1 RESIDUE    0 **** ROOT      0
