@<TRIPOS>MOLECULE
LIG
49 53
SMALL
USER_CHARGES
@<TRIPOS>ATOM
      1 C1           -6.378     12.330    -12.002 aa            1 LIG       -0.028139
      2 C2           -6.510     11.763    -10.740 ab            1 LIG       -0.218062
      3 C3           -7.725     10.566    -13.027 ad            1 LIG       -0.208225
      4 C4           -6.994     11.749    -13.119 ae            1 LIG       -0.172318
      5 C5           -7.831     10.006    -11.754 af            1 LIG        0.067510
      6 C6           -7.244     10.602    -10.607 ah            1 LIG        0.055883
      7 C7           -7.617      9.745     -9.515 ai            1 LIG        0.099627
      8 N1           -8.296      8.737     -9.979 aj            1 LIG       -0.429560
      9 N2           -8.440      8.872    -11.294 ak            1 LIG       -0.027501
     10 C8           -7.332      9.895     -8.025 an            1 LIG        0.033025
     11 C9           -5.548     13.511    -12.157 ao            1 LIG        0.431652
     12 C10          -5.971     10.487     -7.735 ap            1 LIG        0.091544
     13 C11          -5.864     11.759     -7.169 aq            1 LIG       -0.194647
     14 C12          -4.602     12.314     -6.919 av            1 LIG       -0.193900
     15 C13          -3.450     11.596     -7.236 aw            1 LIG        0.106267
     16 C14          -3.560     10.322     -7.800 ax            1 LIG       -0.193900
     17 C15          -4.821      9.772     -8.044 ay            1 LIG       -0.194647
     18 C16          -2.100     12.171     -6.976 az            1 LIG        0.035791
     19 C17          -1.749     13.424     -6.477 bb            1 LIG       -0.193019
     20 N3           -0.412     13.467     -6.426 bc            1 LIG        0.224756
     21 N4            0.171     12.366     -6.822 bd            1 LIG       -0.440037
     22 C18          -0.809     11.562     -7.193 bf            1 LIG       -0.015564
     23 C19           0.422     14.566     -5.982 bg            1 LIG       -0.203144
     24 N5           -5.697     14.242    -13.261 bh            1 LIG       -0.559608
     25 C20          -4.951     15.315    -13.540 bj            1 LIG        0.252018
     26 C21          -3.938     15.690    -12.678 bk            1 LIG       -0.308519
     27 C22          -3.726     14.954    -11.537 bl            1 LIG        0.378915
     28 C23          -4.551     13.877    -11.244 bm            1 LIG       -0.319924
     29 N6           -2.698     15.261    -10.714 bn            1 LIG       -0.916623
     30 H1           -6.041     12.216     -9.876 bo            1 LIG        0.166604
     31 H2           -8.173     10.108    -13.899 bp            1 LIG        0.133130
     32 H3           -6.881     12.202    -14.091 bq            1 LIG        0.139939
     33 H4           -8.954      8.181    -11.828 bs            1 LIG        0.279234
     34 H5           -7.413      8.923     -7.509 bt            1 LIG        0.038360
     35 H6           -8.089     10.534     -7.573 bu            1 LIG        0.038360
     36 H7           -6.753     12.325     -6.926 bv            1 LIG        0.136421
     37 H8           -4.533     13.299     -6.477 bw            1 LIG        0.135999
     38 H9           -2.675      9.754     -8.041 bx            1 LIG        0.135999
     39 H10          -4.893      8.785     -8.484 by            1 LIG        0.136421
     40 H11          -2.341     14.268     -6.171 bz            1 LIG        0.149307
     41 H12          -0.617     10.582     -7.583 cb            1 LIG        0.143988
     42 H13           1.069     14.864     -6.806 ci            1 LIG        0.104060
     43 H14           1.025     14.243     -5.144 cj            1 LIG        0.104060
     44 H15          -0.203     15.415     -5.688 ck            1 LIG        0.104060
     45 H16          -5.169     15.811    -14.427 cm            1 LIG        0.052523
     46 H17          -3.313     16.539    -12.922 cn            1 LIG        0.131783
     47 H18          -4.378     13.312    -10.353 ct            1 LIG        0.133549
     48 H19          -2.692     14.869     -9.789 cw            1 LIG        0.388277
     49 H20          -2.269     16.158    -10.879 da            1 LIG        0.388277
@<TRIPOS>BOND
        1  1  2  2
        2  1  4  1
        3  1  11  1
        4  2  6  1
        5  2  30  1
        6  3  4  2
        7  3  5  1
        8  3  31  1
        9  4  32  1
        10  5  6  2
        11  5  9  1
        12  6  7  1
        13  7  8  2
        14  7  10  1
        15  8  9  1
        16  9  33  1
        17  10  12  1
        18  10  34  1
        19  10  35  1
        20  11  24  2
        21  11  28  1
        22  12  13  2
        23  12  17  1
        24  13  14  1
        25  13  36  1
        26  14  15  2
        27  14  37  1
        28  15  16  1
        29  15  18  1
        30  16  17  2
        31  16  38  1
        32  17  39  1
        33  18  19  2
        34  18  22  1
        35  19  20  1
        36  19  40  1
        37  20  21  1
        38  20  23  1
        39  21  22  2
        40  22  41  1
        41  23  42  1
        42  23  43  1
        43  23  44  1
        44  24  25  1
        45  25  26  2
        46  25  45  1
        47  26  27  1
        48  26  46  1
        49  27  28  2
        50  27  29  1
        51  28  47  1
        52  29  48  1
        53  29  49  1
@<TRIPOS>SUBSTRUCTURE
       1 LIG             1 RESIDUE    0 **** ROOT      0
