@<TRIPOS>MOLECULE
LIG
37 39
SMALL
USER_CHARGES
@<TRIPOS>ATOM
      1 C1          -14.719    -14.744    -27.639 aa            1 LIG       -0.203065
      2 C2          -15.210    -15.558    -26.622 ab            1 LIG        0.234147
      3 C3          -14.855    -13.364    -27.528 ad            1 LIG       -0.201996
      4 C4          -15.863    -15.012    -25.510 ae            1 LIG       -0.122860
      5 N1          -15.015    -16.931    -26.733 af            1 LIG       -0.489656
      6 C5          -15.482    -12.816    -26.411 ah            1 LIG        0.151109
      7 C6          -15.995    -13.633    -25.396 ai            1 LIG        0.112930
      8 C7          -16.401    -15.956    -24.453 aj            1 LIG        0.638704
      9 N2          -16.124    -17.249    -24.750 ak            1 LIG       -0.409174
     10 O1          -17.040    -15.655    -23.444 an            1 LIG       -0.606708
     11 C8          -15.447    -17.757    -25.843 ao            1 LIG        0.335678
     12 C9          -15.280    -19.206    -25.986 ap            1 LIG        0.099333
     13 C10         -15.726    -20.094    -24.999 aq            1 LIG       -0.185844
     14 C11         -15.541    -21.457    -25.166 av            1 LIG       -0.189699
     15 C12         -14.916    -21.942    -26.317 aw            1 LIG        0.045938
     16 C13         -14.486    -21.060    -27.304 ax            1 LIG       -0.189699
     17 C14         -14.663    -19.703    -27.140 ay            1 LIG       -0.185844
     18 C15         -14.586    -23.420    -26.427 az            1 LIG        0.477687
     19 O2          -14.227    -23.839    -27.711 bb            1 LIG       -0.728400
     20 F1          -15.591    -11.482    -26.334 bc            1 LIG       -0.146066
     21 F2          -16.603    -13.100    -24.314 bd            1 LIG       -0.121037
     22 C16         -15.786    -24.316    -26.123 bf            1 LIG       -0.307274
     23 C17         -13.350    -23.660    -25.570 bg            1 LIG       -0.307274
     24 H1          -14.223    -15.176    -28.496 bh            1 LIG        0.184326
     25 H2          -14.467    -12.710    -28.298 bj            1 LIG        0.185925
     26 H3          -16.549    -17.904    -24.108 bk            1 LIG        0.331006
     27 H4          -16.194    -19.754    -24.087 bl            1 LIG        0.157540
     28 H5          -15.851    -22.125    -24.376 bm            1 LIG        0.161103
     29 H6          -13.976    -21.416    -28.188 bn            1 LIG        0.161103
     30 H7          -14.310    -19.047    -27.924 bo            1 LIG        0.157540
     31 H8          -14.022    -24.781    -27.678 bp            1 LIG        0.462497
     32 H9          -16.662    -23.990    -26.684 bq            1 LIG        0.083006
     33 H10         -16.029    -24.309    -25.063 bs            1 LIG        0.083006
     34 H11         -15.611    -25.363    -26.377 bt            1 LIG        0.083006
     35 H12         -12.547    -22.973    -25.834 bu            1 LIG        0.083006
     36 H13         -12.979    -24.667    -25.724 bv            1 LIG        0.083006
     37 H14         -13.556    -23.531    -24.506 bw            1 LIG        0.083006
@<TRIPOS>BOND
        1  1  2  2
        2  1  3  1
        3  1  24  1
        4  2  4  1
        5  2  5  1
        6  3  6  2
        7  3  25  1
        8  4  7  2
        9  4  8  1
        10  5  11  2
        11  6  7  1
        12  6  20  1
        13  7  21  1
        14  8  9  1
        15  8  10  2
        16  9  11  1
        17  9  26  1
        18  11  12  1
        19  12  13  2
        20  12  17  1
        21  13  14  1
        22  13  27  1
        23  14  15  2
        24  14  28  1
        25  15  16  1
        26  15  18  1
        27  16  17  2
        28  16  29  1
        29  17  30  1
        30  18  19  1
        31  18  22  1
        32  18  23  1
        33  19  31  1
        34  22  32  1
        35  22  33  1
        36  22  34  1
        37  23  35  1
        38  23  36  1
        39  23  37  1
@<TRIPOS>SUBSTRUCTURE
       1 LIG             1 RESIDUE    0 **** ROOT      0
