@<TRIPOS>MOLECULE
LIG
55 59
SMALL
USER_CHARGES
@<TRIPOS>ATOM
      1 C1           15.282     -4.635      7.536 aa            1 LIG       -0.176015
      2 N1           14.193     -3.971      6.680 ab            1 LIG       -0.250313
      3 C2           14.717     -3.054      5.554 ad            1 LIG        0.159024
      4 C3           14.918     -3.779      4.187 ae            1 LIG        0.256400
      5 C4           15.087     -5.323      4.236 af            1 LIG       -0.068591
      6 C5           15.221     -5.920      2.831 ah            1 LIG       -0.055712
      7 C6           14.109     -5.431      1.879 ai            1 LIG        0.053985
      8 C7           12.718     -6.085      2.123 aj            1 LIG        0.129370
      9 C8           12.764     -7.604      2.035 ak            1 LIG        0.073933
     10 C9           13.257     -8.215      0.877 an            1 LIG       -0.195238
     11 C10          13.331     -9.600      0.795 ao            1 LIG       -0.134256
     12 C11          12.909    -10.374      1.871 ap            1 LIG       -0.134215
     13 C12          12.401     -9.772      3.020 aq            1 LIG       -0.134256
     14 C13          12.322     -8.385      3.103 av            1 LIG       -0.195238
     15 N2           11.745     -5.553      1.167 aw            1 LIG       -0.567248
     16 C14          11.778     -4.216      0.764 ax            1 LIG        0.222584
     17 C15          10.756     -3.731     -0.060 ay            1 LIG       -0.216979
     18 C16          10.784     -2.422     -0.522 az            1 LIG       -0.191582
     19 C17          11.822     -1.582     -0.123 bb            1 LIG        0.134768
     20 C18          11.889     -0.179     -0.688 bc            1 LIG       -0.130500
     21 C19          12.984      0.753     -0.326 bd            1 LIG       -0.211465
     22 C20          12.939      0.156     -1.722 bf            1 LIG       -0.211465
     23 C21          12.826     -2.075      0.722 bg            1 LIG       -0.251503
     24 C22          12.841     -3.389      1.151 bh            1 LIG       -0.037709
     25 C23          14.013     -3.897      1.976 bj            1 LIG        0.270196
     26 O1           13.822     -3.470      3.324 bk            1 LIG       -0.511113
     27 H1           14.743     -5.222      8.288 bl            1 LIG        0.136206
     28 H2           15.895     -3.861      8.016 bm            1 LIG        0.136206
     29 H3           15.909     -5.298      6.931 bn            1 LIG        0.136206
     30 H4           13.612     -3.412      7.299 bo            1 LIG        0.328342
     31 H5           15.626     -2.553      5.913 bp            1 LIG        0.039064
     32 H6           13.936     -2.291      5.468 bq            1 LIG        0.039064
     33 H7           15.823     -3.341      3.761 bs            1 LIG        0.014758
     34 H8           14.248     -5.795      4.755 bt            1 LIG        0.035136
     35 H9           15.990     -5.595      4.778 bu            1 LIG        0.035136
     36 H10          16.188     -5.626      2.416 bv            1 LIG        0.043644
     37 H11          15.243     -7.007      2.896 bw            1 LIG        0.043644
     38 H12          14.425     -5.644      0.856 bx            1 LIG       -0.007851
     39 H13          12.375     -5.817      3.127 by            1 LIG        0.033330
     40 H14          13.570     -7.613      0.038 bz            1 LIG        0.142286
     41 H15          13.696    -10.065     -0.108 cb            1 LIG        0.149876
     42 H16          12.952    -11.451      1.806 ci            1 LIG        0.151323
     43 H17          12.068    -10.376      3.851 cj            1 LIG        0.149876
     44 H18          11.927     -7.921      3.996 ck            1 LIG        0.142286
     45 H19          11.114     -6.219      0.758 cm            1 LIG        0.333645
     46 H20           9.936     -4.371     -0.346 cn            1 LIG        0.143672
     47 H21          10.022     -2.049     -1.196 ct            1 LIG        0.153205
     48 H22          10.915      0.283     -0.833 cw            1 LIG        0.100096
     49 H23          12.859      1.828     -0.183 da            1 LIG        0.110280
     50 H24          13.790      0.399      0.306 db            1 LIG        0.110280
     51 H25          13.659     -0.600     -2.004 dc            1 LIG        0.110280
     52 H26          12.802      0.840     -2.564 dd            1 LIG        0.110280
     53 H27          13.685     -1.499      1.028 de            1 LIG        0.124485
     54 H28          14.934     -3.449      1.590 df            1 LIG        0.000044
     55 H29          13.572     -4.665      6.271 dg            1 LIG        0.328342
@<TRIPOS>BOND
        1  1  2  1
        2  1  27  1
        3  1  28  1
        4  1  29  1
        5  2  3  1
        6  2  30  1
        7  2  55  1
        8  3  4  1
        9  3  31  1
        10  3  32  1
        11  4  5  1
        12  4  26  1
        13  4  33  1
        14  5  6  1
        15  5  34  1
        16  5  35  1
        17  6  7  1
        18  6  36  1
        19  6  37  1
        20  7  8  1
        21  7  25  1
        22  7  38  1
        23  8  9  1
        24  8  15  1
        25  8  39  1
        26  9  10  2
        27  9  14  1
        28  10  11  1
        29  10  40  1
        30  11  12  2
        31  11  41  1
        32  12  13  1
        33  12  42  1
        34  13  14  2
        35  13  43  1
        36  14  44  1
        37  15  16  1
        38  15  45  1
        39  16  17  2
        40  16  24  1
        41  17  18  1
        42  17  46  1
        43  18  19  2
        44  18  47  1
        45  19  20  1
        46  19  23  1
        47  20  21  1
        48  20  22  1
        49  20  48  1
        50  21  22  1
        51  21  49  1
        52  21  50  1
        53  22  51  1
        54  22  52  1
        55  23  24  2
        56  23  53  1
        57  24  25  1
        58  25  26  1
        59  25  54  1
@<TRIPOS>SUBSTRUCTURE
       1 LIG             1 RESIDUE    0 **** ROOT      0
