@<TRIPOS>MOLECULE
LIG
48 51
SMALL
USER_CHARGES
@<TRIPOS>ATOM
      1 C1           -4.256     -3.107     13.565 aa            1 LIG        0.064392
      2 O1           -3.872     -2.357     14.707 ab            1 LIG       -0.351836
      3 C2           -2.525     -2.109     14.812 ad            1 LIG        0.192505
      4 C3           -1.753     -2.868     15.680 ae            1 LIG       -0.221972
      5 C4           -0.396     -2.607     15.822 af            1 LIG       -0.224935
      6 C5            0.220     -1.581     15.100 ah            1 LIG        0.271231
      7 N1            1.602     -1.358     15.344 ai            1 LIG       -0.564816
      8 C6            2.529     -0.438     14.788 aj            1 LIG        0.447054
      9 N2            2.161      0.391     13.769 ak            1 LIG       -0.552581
     10 C7            3.105      1.226     13.232 an            1 LIG        0.211643
     11 C8            4.405      1.272     13.704 ao            1 LIG       -0.115437
     12 N3            4.740      0.489     14.763 ap            1 LIG        0.066466
     13 C9            5.895      0.391     15.485 aq            1 LIG       -0.162769
     14 C10           5.604     -0.548     16.510 av            1 LIG        0.031982
     15 N4            4.390     -1.060     16.362 aw            1 LIG       -0.512803
     16 C11           3.836     -0.396     15.335 ax            1 LIG        0.173537
     17 C12           2.646      2.127     12.132 ay            1 LIG        0.120161
     18 C13           3.554      2.636     11.184 az            1 LIG       -0.197235
     19 C14           3.114      3.470     10.156 bb            1 LIG       -0.175517
     20 C15           1.762      3.821     10.064 bc            1 LIG       -0.053038
     21 C16           1.304      4.727      8.927 bd            1 LIG        0.755103
     22 O2            2.113      5.352      8.234 bf            1 LIG       -0.632404
     23 N5           -0.009      4.769      8.720 bg            1 LIG       -0.927934
     24 C17           0.853      3.322     11.025 bh            1 LIG        0.163761
     25 F1           -0.458      3.657     10.981 bj            1 LIG       -0.173410
     26 C18           1.298      2.486     12.037 bk            1 LIG       -0.255941
     27 C19          -0.555     -0.812     14.198 bl            1 LIG       -0.296956
     28 C20          -1.940     -1.080     14.063 bm            1 LIG        0.202029
     29 O3           -2.742     -0.336     13.211 bn            1 LIG       -0.347660
     30 C21          -2.220      0.709     12.409 bo            1 LIG        0.064097
     31 H1           -5.337     -3.250     13.581 bp            1 LIG        0.056376
     32 H2           -3.788     -4.093     13.559 bq            1 LIG        0.056376
     33 H3           -4.002     -2.590     12.639 bs            1 LIG        0.056376
     34 H4           -2.213     -3.657     16.260 bt            1 LIG        0.158373
     35 H5            0.194     -3.199     16.512 bu            1 LIG        0.186120
     36 H6            1.997     -1.952     16.060 bv            1 LIG        0.364108
     37 H7            5.164      1.938     13.320 bw            1 LIG        0.125769
     38 H8            6.774      0.986     15.276 bx            1 LIG        0.152351
     39 H9            6.251     -0.844     17.318 by            1 LIG        0.151884
     40 H10           4.601      2.366     11.238 bz            1 LIG        0.155788
     41 H11           3.818      3.836      9.420 cb            1 LIG        0.190473
     42 H12          -0.383      5.315      7.957 ci            1 LIG        0.419643
     43 H13          -0.630      4.231      9.299 cj            1 LIG        0.419643
     44 H14           0.597      2.120     12.771 ck            1 LIG        0.188148
     45 H15          -0.113     -0.020     13.628 cm            1 LIG        0.151790
     46 H16          -3.041      1.120     11.819 cn            1 LIG        0.056689
     47 H17          -1.462      0.343     11.713 ct            1 LIG        0.056689
     48 H18          -1.821      1.512     13.031 cw            1 LIG        0.056689
@<TRIPOS>BOND
        1  1  2  1
        2  1  31  1
        3  1  32  1
        4  1  33  1
        5  2  3  1
        6  3  4  2
        7  3  28  1
        8  4  5  1
        9  4  34  1
        10  5  6  2
        11  5  35  1
        12  6  7  1
        13  6  27  1
        14  7  8  1
        15  7  36  1
        16  8  9  2
        17  8  16  1
        18  9  10  1
        19  10  11  2
        20  10  17  1
        21  11  12  1
        22  11  37  1
        23  12  13  1
        24  12  16  1
        25  13  14  2
        26  13  38  1
        27  14  15  1
        28  14  39  1
        29  15  16  2
        30  17  18  2
        31  17  26  1
        32  18  19  1
        33  18  40  1
        34  19  20  2
        35  19  41  1
        36  20  21  1
        37  20  24  1
        38  21  22  2
        39  21  23  1
        40  23  42  1
        41  23  43  1
        42  24  25  1
        43  24  26  2
        44  26  44  1
        45  27  28  2
        46  27  45  1
        47  28  29  1
        48  29  30  1
        49  30  46  1
        50  30  47  1
        51  30  48  1
@<TRIPOS>SUBSTRUCTURE
       1 LIG             1 RESIDUE    0 **** ROOT      0
