@<TRIPOS>MOLECULE
LIG
39 43
SMALL
USER_CHARGES
@<TRIPOS>ATOM
      1 N1            1.612     -1.392     15.306 aa            1 LIG       -0.570041
      2 C1            0.225     -1.598     15.081 ab            1 LIG        0.281941
      3 C2           -0.544     -0.815     14.198 ad            1 LIG       -0.211242
      4 C3           -1.914     -1.074     14.057 ae            1 LIG       -0.135997
      5 C4           -2.512     -2.100     14.791 af            1 LIG       -0.146426
      6 C5           -1.754     -2.870     15.661 ah            1 LIG       -0.135997
      7 C6           -0.396     -2.622     15.803 ai            1 LIG       -0.211242
      8 C7            2.531     -0.449     14.765 aj            1 LIG        0.446915
      9 N2            2.158      0.396     13.755 ak            1 LIG       -0.554196
     10 C8            3.095      1.242     13.225 an            1 LIG        0.212143
     11 C9            4.405      1.281     13.695 ao            1 LIG       -0.116825
     12 N3            4.739      0.491     14.753 ap            1 LIG        0.063227
     13 C10           5.896      0.386     15.481 aq            1 LIG       -0.163567
     14 C11           5.597     -0.541     16.512 av            1 LIG        0.031435
     15 N4            4.387     -1.059     16.354 aw            1 LIG       -0.516220
     16 C12           3.835     -0.396     15.322 ax            1 LIG        0.172739
     17 C13           2.624      2.156     12.122 ay            1 LIG        0.110643
     18 C14           3.541      2.645     11.167 az            1 LIG       -0.200972
     19 C15           3.153      3.466     10.109 bb            1 LIG       -0.190733
     20 C16           1.807      3.820     10.014 bc            1 LIG        0.062094
     21 C17           0.997      4.604      9.119 bd            1 LIG       -0.012731
     22 N5           -0.243      4.608      9.520 bf            1 LIG       -0.401385
     23 N6           -0.332      3.882     10.631 bg            1 LIG       -0.019630
     24 C18           0.883      3.348     10.994 bh            1 LIG        0.071205
     25 C19           1.262      2.517     12.055 bj            1 LIG       -0.252625
     26 H1            2.018     -2.016     15.992 bk            1 LIG        0.362696
     27 H2           -0.104     -0.017     13.634 bl            1 LIG        0.156820
     28 H3           -2.512     -0.479     13.385 bm            1 LIG        0.139620
     29 H4           -3.570     -2.297     14.686 bn            1 LIG        0.136211
     30 H5           -2.220     -3.661     16.234 bo            1 LIG        0.139620
     31 H6            0.188     -3.220     16.489 bp            1 LIG        0.156820
     32 H7            5.166      1.950     13.321 bq            1 LIG        0.122826
     33 H8            6.776      0.979     15.276 bs            1 LIG        0.149096
     34 H9            6.240     -0.827     17.331 bt            1 LIG        0.148659
     35 H10           4.578      2.357     11.239 bu            1 LIG        0.137701
     36 H11           3.875      3.810      9.380 bv            1 LIG        0.143551
     37 H12           1.304      5.136      8.233 bw            1 LIG        0.149993
     38 H13          -1.219      3.773     11.100 bx            1 LIG        0.285416
     39 H14           0.553      2.169     12.794 by            1 LIG        0.158459
@<TRIPOS>BOND
        1  1  2  1
        2  1  8  1
        3  1  26  1
        4  2  3  2
        5  2  7  1
        6  3  4  1
        7  3  27  1
        8  4  5  2
        9  4  28  1
        10  5  6  1
        11  5  29  1
        12  6  7  2
        13  6  30  1
        14  7  31  1
        15  8  9  2
        16  8  16  1
        17  9  10  1
        18  10  11  2
        19  10  17  1
        20  11  12  1
        21  11  32  1
        22  12  13  1
        23  12  16  1
        24  13  14  2
        25  13  33  1
        26  14  15  1
        27  14  34  1
        28  15  16  2
        29  17  18  2
        30  17  25  1
        31  18  19  1
        32  18  35  1
        33  19  20  2
        34  19  36  1
        35  20  21  1
        36  20  24  1
        37  21  22  2
        38  21  37  1
        39  22  23  1
        40  23  24  1
        41  23  38  1
        42  24  25  2
        43  25  39  1
@<TRIPOS>SUBSTRUCTURE
       1 LIG             1 RESIDUE    0 **** ROOT      0
