@<TRIPOS>MOLECULE
LIG
48 51
SMALL
USER_CHARGES
@<TRIPOS>ATOM
      1 C1           -4.257     -3.105     13.568 aa            1 LIG        0.063653
      2 O1           -3.873     -2.361     14.715 ab            1 LIG       -0.354509
      3 C2           -2.525     -2.110     14.817 ad            1 LIG        0.192124
      4 C3           -1.751     -2.868     15.683 ae            1 LIG       -0.221170
      5 C4           -0.391     -2.610     15.819 af            1 LIG       -0.223891
      6 C5            0.217     -1.586     15.091 ah            1 LIG        0.269685
      7 N1            1.605     -1.361     15.329 ai            1 LIG       -0.565662
      8 C6            2.532     -0.449     14.768 aj            1 LIG        0.446018
      9 N2            2.175      0.381     13.736 ak            1 LIG       -0.550548
     10 C7            3.115      1.235     13.222 an            1 LIG        0.210171
     11 C8            4.416      1.278     13.703 ao            1 LIG       -0.117366
     12 N3            4.745      0.485     14.760 ap            1 LIG        0.062917
     13 C9            5.898      0.380     15.486 aq            1 LIG       -0.164191
     14 C10           5.593     -0.534     16.524 av            1 LIG        0.030550
     15 N4            4.380     -1.050     16.370 aw            1 LIG       -0.515434
     16 C11           3.838     -0.399     15.326 ax            1 LIG        0.173663
     17 C12           2.655      2.151     12.123 ay            1 LIG        0.114615
     18 C13           3.565      2.633     11.166 az            1 LIG       -0.189471
     19 C14           3.128      3.453     10.126 bb            1 LIG       -0.136120
     20 C15           1.785      3.816     10.026 bc            1 LIG       -0.190121
     21 C16           0.866      3.367     10.991 bd            1 LIG        0.013549
     22 C17           1.308      2.539     12.035 bf            1 LIG       -0.227015
     23 C18          -0.613      3.762     10.914 bg            1 LIG        0.750011
     24 O2           -1.412      3.370     11.750 bh            1 LIG       -0.626240
     25 N5           -0.962      4.544      9.896 bj            1 LIG       -0.923429
     26 C19          -0.552     -0.815     14.193 bk            1 LIG       -0.297868
     27 C20          -1.943     -1.089     14.063 bl            1 LIG        0.199937
     28 O3           -2.749     -0.351     13.210 bm            1 LIG       -0.350626
     29 C21          -2.212      0.532     12.252 bn            1 LIG        0.065450
     30 H1           -5.337     -3.247     13.583 bo            1 LIG        0.056701
     31 H2           -3.792     -4.092     13.562 bp            1 LIG        0.056701
     32 H3           -4.005     -2.585     12.642 bq            1 LIG        0.056701
     33 H4           -2.204     -3.658     16.265 bs            1 LIG        0.174067
     34 H5            0.194     -3.202     16.506 bt            1 LIG        0.193053
     35 H6            1.993     -1.943     16.058 bu            1 LIG        0.360993
     36 H7            5.177      1.955     13.341 bv            1 LIG        0.120165
     37 H8            6.782      0.962     15.277 bw            1 LIG        0.147898
     38 H9            6.234     -0.810     17.347 bx            1 LIG        0.147970
     39 H10           4.605      2.350     11.218 by            1 LIG        0.141844
     40 H11           3.836      3.803      9.387 bz            1 LIG        0.144494
     41 H12           1.466      4.441      9.209 cb            1 LIG        0.136991
     42 H13           0.609      2.201     12.785 ci            1 LIG        0.200410
     43 H14          -1.928      4.827      9.798 cj            1 LIG        0.405431
     44 H15          -0.285      4.864      9.230 ck            1 LIG        0.405431
     45 H16          -0.111     -0.025     13.627 cm            1 LIG        0.148148
     46 H17          -3.029      0.989     11.688 cn            1 LIG        0.054774
     47 H18          -1.563      0.023     11.542 ct            1 LIG        0.054774
     48 H19          -1.667      1.318     12.760 cw            1 LIG        0.054774
@<TRIPOS>BOND
        1  1  2  1
        2  1  30  1
        3  1  31  1
        4  1  32  1
        5  2  3  1
        6  3  4  2
        7  3  27  1
        8  4  5  1
        9  4  33  1
        10  5  6  2
        11  5  34  1
        12  6  7  1
        13  6  26  1
        14  7  8  1
        15  7  35  1
        16  8  9  2
        17  8  16  1
        18  9  10  1
        19  10  11  2
        20  10  17  1
        21  11  12  1
        22  11  36  1
        23  12  13  1
        24  12  16  1
        25  13  14  2
        26  13  37  1
        27  14  15  1
        28  14  38  1
        29  15  16  2
        30  17  18  2
        31  17  22  1
        32  18  19  1
        33  18  39  1
        34  19  20  2
        35  19  40  1
        36  20  21  1
        37  20  41  1
        38  21  22  2
        39  21  23  1
        40  22  42  1
        41  23  24  2
        42  23  25  1
        43  25  43  1
        44  25  44  1
        45  26  27  2
        46  26  45  1
        47  27  28  1
        48  28  29  1
        49  29  46  1
        50  29  47  1
        51  29  48  1
@<TRIPOS>SUBSTRUCTURE
       1 LIG             1 RESIDUE    0 **** ROOT      0
