@<TRIPOS>MOLECULE
LIG
54 58
SMALL
USER_CHARGES
@<TRIPOS>ATOM
      1 C1           -6.358     12.363    -12.015 aa            1 LIG        0.011418
      2 C2           -6.501     11.802    -10.738 ab            1 LIG       -0.235776
      3 C3           -7.710     10.577    -13.038 ad            1 LIG       -0.205656
      4 C4           -6.978     11.776    -13.131 ae            1 LIG       -0.187448
      5 C5           -7.813     10.013    -11.762 af            1 LIG        0.069246
      6 C6           -7.234     10.620    -10.605 ah            1 LIG        0.054638
      7 C7           -7.612      9.751     -9.514 ai            1 LIG        0.100927
      8 N1           -8.283      8.741     -9.989 aj            1 LIG       -0.418859
      9 N2           -8.416      8.868    -11.302 ak            1 LIG       -0.025284
     10 C8           -7.336      9.888     -8.025 an            1 LIG        0.036599
     11 N3           -4.375     13.731    -11.448 ao            1 LIG       -0.302135
     12 C9           -5.540     13.648    -12.182 ap            1 LIG        0.668631
     13 O1           -5.931     14.546    -12.929 aq            1 LIG       -0.627772
     14 C10          -5.962     10.486     -7.736 av            1 LIG        0.094275
     15 C11          -4.811      9.766     -8.052 aw            1 LIG       -0.193143
     16 C12          -3.555     10.316     -7.801 ax            1 LIG       -0.194538
     17 C13          -3.446     11.591     -7.237 ay            1 LIG        0.106440
     18 C14          -4.599     12.307     -6.917 az            1 LIG       -0.194538
     19 C15          -5.855     11.757     -7.165 bb            1 LIG       -0.193143
     20 C16          -2.101     12.181     -6.976 bc            1 LIG        0.035624
     21 C17          -1.766     13.439     -6.477 bd            1 LIG       -0.192758
     22 N4           -0.431     13.491     -6.417 bf            1 LIG        0.225714
     23 N5            0.171     12.404     -6.812 bg            1 LIG       -0.439178
     24 C18          -0.803     11.588     -7.179 bh            1 LIG       -0.016144
     25 C19           0.385     14.608     -5.966 bj            1 LIG       -0.203580
     26 C20          -3.697     12.509    -10.918 bk            1 LIG        0.016916
     27 C21          -2.225     12.464    -11.443 bl            1 LIG        0.282114
     28 N6           -1.499     13.762    -11.065 bm            1 LIG       -0.921967
     29 C22          -2.204     14.936    -11.753 bn            1 LIG        0.282114
     30 C23          -3.676     15.033    -11.316 bo            1 LIG        0.016916
     31 H1           -6.058     12.279     -9.874 bp            1 LIG        0.149241
     32 H2           -8.162     10.118    -13.910 bq            1 LIG        0.139880
     33 H3           -6.863     12.240    -14.099 bs            1 LIG        0.142209
     34 H4           -8.914      8.162    -11.837 bt            1 LIG        0.283602
     35 H5           -8.096     10.544     -7.595 bu            1 LIG        0.034900
     36 H6           -7.439      8.926     -7.516 bv            1 LIG        0.034900
     37 H7           -4.893      8.782     -8.493 bw            1 LIG        0.135779
     38 H8           -2.663      9.754     -8.045 bx            1 LIG        0.136221
     39 H9           -4.519     13.288     -6.476 by            1 LIG        0.136221
     40 H10          -6.744     12.317     -6.918 bz            1 LIG        0.135779
     41 H11          -2.365     14.280     -6.168 cb            1 LIG        0.149828
     42 H12          -0.600     10.596     -7.562 ci            1 LIG        0.142756
     43 H13          -0.238     15.449     -5.663 cj            1 LIG        0.104568
     44 H14           1.046     14.929     -6.771 ck            1 LIG        0.104568
     45 H15           0.999     14.296     -5.122 cm            1 LIG        0.104568
     46 H16          -4.136     11.569    -11.282 cn            1 LIG        0.059789
     47 H17          -3.693     12.539     -9.827 ct            1 LIG        0.059789
     48 H18          -2.121     12.354    -12.531 cw            1 LIG        0.030240
     49 H19          -1.634     11.674    -10.967 da            1 LIG        0.030240
     50 H20          -0.520     13.732    -11.344 db            1 LIG        0.255212
     51 H21          -2.127     14.783    -12.819 dc            1 LIG        0.030240
     52 H22          -1.622     15.832    -11.513 dd            1 LIG        0.030240
     53 H23          -4.153     15.852    -11.865 de            1 LIG        0.059789
     54 H24          -3.681     15.281    -10.257 df            1 LIG        0.059789
@<TRIPOS>BOND
        1  1  2  2
        2  1  4  1
        3  1  12  1
        4  2  6  1
        5  2  31  1
        6  3  4  2
        7  3  5  1
        8  3  32  1
        9  4  33  1
        10  5  6  2
        11  5  9  1
        12  6  7  1
        13  7  8  2
        14  7  10  1
        15  8  9  1
        16  9  34  1
        17  10  14  1
        18  10  35  1
        19  10  36  1
        20  11  12  1
        21  11  26  1
        22  11  30  1
        23  12  13  2
        24  14  15  2
        25  14  19  1
        26  15  16  1
        27  15  37  1
        28  16  17  2
        29  16  38  1
        30  17  18  1
        31  17  20  1
        32  18  19  2
        33  18  39  1
        34  19  40  1
        35  20  21  2
        36  20  24  1
        37  21  22  1
        38  21  41  1
        39  22  23  1
        40  22  25  1
        41  23  24  2
        42  24  42  1
        43  25  43  1
        44  25  44  1
        45  25  45  1
        46  26  27  1
        47  26  46  1
        48  26  47  1
        49  27  28  1
        50  27  48  1
        51  27  49  1
        52  28  29  1
        53  28  50  1
        54  29  30  1
        55  29  51  1
        56  29  52  1
        57  30  53  1
        58  30  54  1
@<TRIPOS>SUBSTRUCTURE
       1 LIG             1 RESIDUE    0 **** ROOT      0
