@<TRIPOS>MOLECULE
LIG
45 49
SMALL
USER_CHARGES
@<TRIPOS>ATOM
      1 C1           91.592     48.311    266.714 aa            1 LIG        0.279411
      2 C2           91.974     49.538    267.274 ab            1 LIG       -0.246761
      3 C3           93.278     49.791    267.673 ad            1 LIG       -0.002731
      4 C4           94.268     48.777    267.513 ae            1 LIG        0.243435
      5 C5           93.879     47.527    266.920 af            1 LIG        0.292476
      6 C6           92.538     47.321    266.520 ah            1 LIG       -0.310179
      7 C7           93.587     51.094    268.328 ai            1 LIG        0.068812
      8 C8           92.910     51.458    269.475 aj            1 LIG       -0.240345
      9 C9           93.207     52.669    270.069 ak            1 LIG        0.061544
     10 C10          94.160     53.545    269.488 an            1 LIG        0.069043
     11 C11          94.881     53.183    268.356 ao            1 LIG       -0.194431
     12 C12          94.564     51.934    267.791 ap            1 LIG       -0.175145
     13 N1           94.795     46.529    266.760 aq            1 LIG       -0.496395
     14 C13          96.053     46.746    267.181 av            1 LIG        0.171112
     15 C14          96.446     47.959    267.746 aw            1 LIG        0.163272
     16 N2           95.555     48.961    267.932 ax            1 LIG       -0.485857
     17 N3           90.259     48.147    266.319 ay            1 LIG       -0.550475
     18 C15          94.177     54.762    270.316 az            1 LIG       -0.220937
     19 C16          93.312     54.508    271.343 bb            1 LIG       -0.139124
     20 N4           92.737     53.255    271.233 bc            1 LIG        0.030703
     21 C17          91.827     52.667    272.175 bd            1 LIG       -0.187299
     22 C18          89.677     47.356    265.318 bf            1 LIG        0.277026
     23 C19          90.333     47.035    264.126 bg            1 LIG       -0.208667
     24 C20          89.713     46.191    263.200 bh            1 LIG       -0.135632
     25 C21          88.454     45.675    263.471 bj            1 LIG       -0.146548
     26 C22          87.792     45.989    264.660 bk            1 LIG       -0.135632
     27 C23          88.412     46.827    265.581 bl            1 LIG       -0.208667
     28 H1           91.213     50.293    267.422 bm            1 LIG        0.142325
     29 H2           92.257     46.392    266.037 bn            1 LIG        0.163808
     30 H3           92.142     50.788    269.923 bo            1 LIG        0.130889
     31 H4           95.623     53.816    267.917 bp            1 LIG        0.139778
     32 H5           95.096     51.643    266.892 bq            1 LIG        0.151388
     33 H6           96.769     45.946    267.019 bs            1 LIG        0.052950
     34 H7           97.467     48.145    268.043 bt            1 LIG        0.051709
     35 H8           89.599     48.735    266.813 bu            1 LIG        0.330255
     36 H9           94.790     55.612    270.198 bv            1 LIG        0.141547
     37 H10          93.052     55.111    272.189 bw            1 LIG        0.145325
     38 H11          90.890     52.425    271.673 bx            1 LIG        0.093219
     39 H12          91.627     53.343    273.021 by            1 LIG        0.093219
     40 H13          92.260     51.748    272.566 bz            1 LIG        0.093219
     41 H14          91.324     47.413    263.917 cb            1 LIG        0.140669
     42 H15          90.198     45.941    262.267 ci            1 LIG        0.140167
     43 H16          87.945     45.052    262.752 cj            1 LIG        0.136691
     44 H17          86.804     45.597    264.846 ck            1 LIG        0.140167
     45 H18          87.889     47.060    266.490 cm            1 LIG        0.140669
@<TRIPOS>BOND
        1  1  2  2
        2  1  6  1
        3  1  17  1
        4  2  3  1
        5  2  28  1
        6  3  4  2
        7  3  7  1
        8  4  5  1
        9  4  16  1
        10  5  6  2
        11  5  13  1
        12  6  29  1
        13  7  8  2
        14  7  12  1
        15  8  9  1
        16  8  30  1
        17  9  10  2
        18  9  20  1
        19  10  11  1
        20  10  18  1
        21  11  12  2
        22  11  31  1
        23  12  32  1
        24  13  14  2
        25  14  15  1
        26  14  33  1
        27  15  16  2
        28  15  34  1
        29  17  22  1
        30  17  35  1
        31  18  19  2
        32  18  36  1
        33  19  20  1
        34  19  37  1
        35  20  21  1
        36  21  38  1
        37  21  39  1
        38  21  40  1
        39  22  23  2
        40  22  27  1
        41  23  24  1
        42  23  41  1
        43  24  25  2
        44  24  42  1
        45  25  26  1
        46  25  43  1
        47  26  27  2
        48  26  44  1
        49  27  45  1
@<TRIPOS>SUBSTRUCTURE
       1 LIG             1 RESIDUE    0 **** ROOT      0
