@<TRIPOS>MOLECULE
LIG
37 39
SMALL
USER_CHARGES
@<TRIPOS>ATOM
      1 C1          -14.738    -14.632    -27.562 aa            1 LIG       -0.202896
      2 C2          -15.221    -15.503    -26.584 ab            1 LIG        0.237597
      3 C3          -14.805    -13.252    -27.354 ad            1 LIG       -0.130380
      4 C4          -15.829    -14.996    -25.432 ae            1 LIG       -0.123066
      5 N1          -15.064    -16.886    -26.765 af            1 LIG       -0.493844
      6 C5          -15.377    -12.750    -26.183 ah            1 LIG       -0.209432
      7 C6          -15.896    -13.622    -25.222 ai            1 LIG        0.178478
      8 C7          -16.391    -15.977    -24.427 aj            1 LIG        0.636274
      9 N2          -16.086    -17.257    -24.750 ak            1 LIG       -0.412384
     10 O1          -17.080    -15.714    -23.443 an            1 LIG       -0.614848
     11 C8          -15.453    -17.742    -25.876 ao            1 LIG        0.334838
     12 C9          -15.298    -19.202    -26.025 ap            1 LIG        0.099376
     13 C10         -14.722    -19.720    -27.192 aq            1 LIG       -0.186248
     14 C11         -14.540    -21.087    -27.340 av            1 LIG       -0.190226
     15 C12         -14.931    -21.962    -26.329 aw            1 LIG        0.044209
     16 C13         -15.526    -21.454    -25.171 ax            1 LIG       -0.190226
     17 C14         -15.714    -20.088    -25.020 ay            1 LIG       -0.186248
     18 C15         -14.614    -23.455    -26.420 az            1 LIG        0.477434
     19 O2          -14.241    -23.905    -27.692 bb            1 LIG       -0.728233
     20 C16         -15.833    -24.331    -26.134 bc            1 LIG       -0.306854
     21 C17         -13.397    -23.727    -25.543 bd            1 LIG       -0.306854
     22 F1          -16.440    -13.138    -24.090 bf            1 LIG       -0.144543
     23 H1          -14.281    -15.024    -28.459 bg            1 LIG        0.170679
     24 H2          -14.410    -12.570    -28.095 bh            1 LIG        0.162712
     25 H3          -15.415    -11.682    -26.020 bj            1 LIG        0.171148
     26 H4          -16.497    -17.929    -24.117 bk            1 LIG        0.326192
     27 H5          -14.396    -19.070    -27.992 bl            1 LIG        0.156252
     28 H6          -14.059    -21.456    -28.234 bm            1 LIG        0.159395
     29 H7          -15.812    -22.112    -24.363 bn            1 LIG        0.159395
     30 H8          -16.165    -19.741    -24.101 bo            1 LIG        0.156252
     31 H9          -14.053    -24.850    -27.638 bp            1 LIG        0.462165
     32 H10         -16.704    -23.974    -26.685 bq            1 LIG        0.082315
     33 H11         -16.071    -24.346    -25.073 bs            1 LIG        0.082315
     34 H12         -15.683    -25.377    -26.410 bt            1 LIG        0.082315
     35 H13         -12.575    -23.060    -25.800 bu            1 LIG        0.082315
     36 H14         -13.045    -24.749    -25.680 bv            1 LIG        0.082315
     37 H15         -13.617    -23.581    -24.485 bw            1 LIG        0.082315
@<TRIPOS>BOND
        1  1  2  2
        2  1  3  1
        3  1  23  1
        4  2  4  1
        5  2  5  1
        6  3  6  2
        7  3  24  1
        8  4  7  2
        9  4  8  1
        10  5  11  2
        11  6  7  1
        12  6  25  1
        13  7  22  1
        14  8  9  1
        15  8  10  2
        16  9  11  1
        17  9  26  1
        18  11  12  1
        19  12  13  2
        20  12  17  1
        21  13  14  1
        22  13  27  1
        23  14  15  2
        24  14  28  1
        25  15  16  1
        26  15  18  1
        27  16  17  2
        28  16  29  1
        29  17  30  1
        30  18  19  1
        31  18  20  1
        32  18  21  1
        33  19  31  1
        34  20  32  1
        35  20  33  1
        36  20  34  1
        37  21  35  1
        38  21  36  1
        39  21  37  1
@<TRIPOS>SUBSTRUCTURE
       1 LIG             1 RESIDUE    0 **** ROOT      0
