@<TRIPOS>MOLECULE
LIG
40 42
SMALL
USER_CHARGES
@<TRIPOS>ATOM
      1 O1           27.501     -1.633    -11.464 aa            1 LIG       -0.691613
      2 C1           27.157     -0.284    -11.400 ab            1 LIG        0.210813
      3 C2           26.689      0.333    -12.703 ad            1 LIG       -0.051351
      4 C3           25.197      0.038    -12.769 ae            1 LIG        0.105706
      5 C4           24.811     -0.150    -11.311 af            1 LIG       -0.035329
      6 C5           25.959     -0.266    -10.526 ah            1 LIG       -0.031740
      7 C6           25.897     -0.631     -9.185 ai            1 LIG       -0.014240
      8 C7           24.641     -0.855     -8.622 aj            1 LIG       -0.192485
      9 C8           23.484     -0.675     -9.376 ak            1 LIG       -0.208131
     10 C9           23.556     -0.340    -10.733 an            1 LIG        0.217526
     11 O2           22.460     -0.188    -11.556 ao            1 LIG       -0.303817
     12 C10          21.210     -0.548    -11.122 ap            1 LIG        0.273799
     13 C11          20.741     -1.839    -11.355 aq            1 LIG       -0.280022
     14 C12          19.479     -2.210    -10.904 av            1 LIG        0.228199
     15 F1           19.008     -3.446    -11.160 aw            1 LIG       -0.151991
     16 C13          18.698     -1.307    -10.189 ax            1 LIG       -0.274282
     17 C14          19.161     -0.012     -9.954 ay            1 LIG        0.168329
     18 Cl1          18.213      1.122     -9.064 az            1 LIG       -0.104969
     19 C15          20.410      0.368    -10.438 bb            1 LIG       -0.278854
     20 S1           27.394     -0.985     -8.232 bc            1 LIG        0.863487
     21 O3           26.955     -1.819     -7.114 bd            1 LIG       -0.519065
     22 O4           28.473     -1.492     -9.081 bf            1 LIG       -0.519065
     23 C16          28.002      0.718     -7.690 bg            1 LIG        0.274750
     24 F2           28.177      1.477     -8.768 bh            1 LIG       -0.182148
     25 F3           27.164      1.279     -6.827 bj            1 LIG       -0.182148
     26 C17          24.443      1.136    -13.494 bk            1 LIG       -0.286604
     27 H1           26.774     -2.146    -11.836 bl            1 LIG        0.470629
     28 H2           27.981      0.316    -11.012 bm            1 LIG        0.086177
     29 H3           26.856      1.411    -12.645 bn            1 LIG        0.040517
     30 H4           27.225     -0.013    -13.585 bo            1 LIG        0.040517
     31 H5           25.050     -0.900    -13.305 bp            1 LIG        0.034440
     32 H6           24.554     -1.233     -7.612 bq            1 LIG        0.182547
     33 H7           22.527     -0.833     -8.919 bs            1 LIG        0.171730
     34 H8           21.360     -2.558    -11.869 bt            1 LIG        0.193193
     35 H9           17.745     -1.633     -9.814 bu            1 LIG        0.194051
     36 H10          20.760      1.372    -10.264 bv            1 LIG        0.178720
     37 H11          28.967      0.560     -7.223 bw            1 LIG        0.119262
     38 H12          23.485      0.767    -13.830 bx            1 LIG        0.084487
     39 H13          24.981      1.487    -14.367 by            1 LIG        0.084487
     40 H14          24.285      1.969    -12.819 bz            1 LIG        0.084487
@<TRIPOS>BOND
        1  1  2  1
        2  1  27  1
        3  2  3  1
        4  2  6  1
        5  2  28  1
        6  3  4  1
        7  3  29  1
        8  3  30  1
        9  4  5  1
        10  4  26  1
        11  4  31  1
        12  5  6  2
        13  5  10  1
        14  6  7  1
        15  7  8  2
        16  7  20  1
        17  8  9  1
        18  8  32  1
        19  9  10  2
        20  9  33  1
        21  10  11  1
        22  11  12  1
        23  12  13  2
        24  12  19  1
        25  13  14  1
        26  13  34  1
        27  14  15  1
        28  14  16  2
        29  16  17  1
        30  16  35  1
        31  17  18  1
        32  17  19  2
        33  19  36  1
        34  20  21  2
        35  20  22  2
        36  20  23  1
        37  23  24  1
        38  23  25  1
        39  23  37  1
        40  26  38  1
        41  26  39  1
        42  26  40  1
@<TRIPOS>SUBSTRUCTURE
       1 LIG             1 RESIDUE    0 **** ROOT      0
