@<TRIPOS>MOLECULE
LIG
43 46
SMALL
USER_CHARGES
@<TRIPOS>ATOM
      1 C1           93.280     49.795    267.693 aa            1 LIG       -0.001459
      2 C2           92.570     47.327    266.488 ab            1 LIG       -0.308147
      3 C3           91.610     48.323    266.679 ad            1 LIG        0.282237
      4 C4           91.970     49.523    267.287 ae            1 LIG       -0.241449
      5 C5           93.897     47.528    266.931 af            1 LIG        0.295454
      6 C6           94.269     48.773    267.526 ah            1 LIG        0.245714
      7 N1           95.558     48.959    267.949 ai            1 LIG       -0.482672
      8 C7           96.450     47.953    267.760 aj            1 LIG        0.168282
      9 C8           96.066     46.738    267.212 ak            1 LIG        0.173683
     10 N2           94.796     46.517    266.787 an            1 LIG       -0.486954
     11 C9           93.593     51.108    268.325 ao            1 LIG        0.079487
     12 C10          93.043     51.452    269.567 ap            1 LIG       -0.172563
     13 C11          93.349     52.680    270.157 aq            1 LIG       -0.134669
     14 C12          94.200     53.573    269.510 av            1 LIG       -0.193220
     15 C13          94.710     53.257    268.253 aw            1 LIG        0.159678
     16 C14          94.427     52.028    267.675 ax            1 LIG       -0.224520
     17 N3           90.271     48.113    266.314 ay            1 LIG       -0.560881
     18 C15          89.715     47.338    265.287 az            1 LIG        0.147545
     19 C16          90.412     47.128    264.093 bb            1 LIG        0.179286
     20 N4           89.905     46.446    263.033 bc            1 LIG       -0.463616
     21 C17          88.652     45.940    263.161 bd            1 LIG        0.241697
     22 C18          87.883     46.084    264.317 bf            1 LIG       -0.271095
     23 C19          88.422     46.795    265.395 bg            1 LIG       -0.023924
     24 S1           87.481     46.888    266.925 bh            1 LIG        0.920079
     25 O1           86.123     46.403    266.662 bj            1 LIG       -0.547265
     26 O2           87.686     48.224    267.494 bk            1 LIG       -0.547265
     27 C20          88.366     45.622    267.998 bl            1 LIG       -0.370520
     28 Br1          95.770     54.515    267.309 bm            1 LIG       -0.132450
     29 H1           92.284     46.381    266.048 bn            1 LIG        0.165579
     30 H2           91.207     50.277    267.432 bo            1 LIG        0.160640
     31 H3           97.474     48.150    268.050 bp            1 LIG        0.063056
     32 H4           96.776     45.941    267.050 bq            1 LIG        0.063267
     33 H5           92.393     50.765    270.080 bs            1 LIG        0.149745
     34 H6           92.929     52.935    271.118 bt            1 LIG        0.153920
     35 H7           94.418     54.536    269.961 bu            1 LIG        0.159507
     36 H8           94.827     51.799    266.699 bv            1 LIG        0.178924
     37 H9           89.570     48.586    266.872 bw            1 LIG        0.375299
     38 H10          91.407     47.517    263.972 bx            1 LIG        0.090049
     39 H11          88.266     45.383    262.319 by            1 LIG        0.081326
     40 H12          86.901     45.630    264.383 bz            1 LIG        0.181033
     41 H13          87.838     45.510    268.949 cb            1 LIG        0.149061
     42 H14          89.386     45.969    268.168 ci            1 LIG        0.149061
     43 H15          88.376     44.670    267.471 cj            1 LIG        0.149061
@<TRIPOS>BOND
        1  1  4  2
        2  1  6  1
        3  1  11  1
        4  2  3  2
        5  2  5  1
        6  2  29  1
        7  3  4  1
        8  3  17  1
        9  4  30  1
        10  5  6  2
        11  5  10  1
        12  6  7  1
        13  7  8  2
        14  8  9  1
        15  8  31  1
        16  9  10  2
        17  9  32  1
        18  11  12  2
        19  11  16  1
        20  12  13  1
        21  12  33  1
        22  13  14  2
        23  13  34  1
        24  14  15  1
        25  14  35  1
        26  15  16  2
        27  15  28  1
        28  16  36  1
        29  17  18  1
        30  17  37  1
        31  18  19  2
        32  18  23  1
        33  19  20  1
        34  19  38  1
        35  20  21  2
        36  21  22  1
        37  21  39  1
        38  22  23  2
        39  22  40  1
        40  23  24  1
        41  24  25  2
        42  24  26  2
        43  24  27  1
        44  27  41  1
        45  27  42  1
        46  27  43  1
@<TRIPOS>SUBSTRUCTURE
       1 LIG             1 RESIDUE    0 **** ROOT      0
