@<TRIPOS>MOLECULE
LIG
38 40
SMALL
USER_CHARGES
@<TRIPOS>ATOM
      1 O1           27.976      1.167    -10.832 aa            1 LIG       -0.677149
      2 C1           27.239      0.184    -11.555 ab            1 LIG        0.202716
      3 C2           26.548      0.766    -12.800 ad            1 LIG        0.101304
      4 C3           25.205      0.064    -12.905 ae            1 LIG        0.155010
      5 C4           24.894     -0.300    -11.477 af            1 LIG       -0.062536
      6 C5           26.079     -0.373    -10.738 ah            1 LIG       -0.035312
      7 C6           26.046     -0.898     -9.440 ai            1 LIG       -0.010143
      8 C7           24.816     -1.204     -8.859 aj            1 LIG       -0.183911
      9 C8           23.629     -1.036     -9.564 ak            1 LIG       -0.202360
     10 C9           23.666     -0.603    -10.893 an            1 LIG        0.227454
     11 O2           22.563     -0.473    -11.706 ao            1 LIG       -0.316419
     12 C10          21.308     -0.705    -11.216 ap            1 LIG        0.280719
     13 C11          20.682     -1.924    -11.463 aq            1 LIG       -0.273762
     14 C12          19.403     -2.154    -10.970 av            1 LIG        0.228422
     15 F1           18.780     -3.322    -11.216 aw            1 LIG       -0.156496
     16 C13          18.753     -1.172    -10.231 ax            1 LIG       -0.251708
     17 C14          19.363      0.064    -10.008 ay            1 LIG        0.194643
     18 C15          18.684      1.124     -9.286 az            1 LIG        0.223418
     19 C16          20.652      0.283    -10.482 bb            1 LIG       -0.248070
     20 S1           27.527     -1.213     -8.491 bc            1 LIG        0.922826
     21 O3           27.228     -2.283     -7.534 bd            1 LIG       -0.533443
     22 O4           28.653     -1.361     -9.414 bf            1 LIG       -0.533443
     23 F2           26.278      2.042    -12.549 bg            1 LIG       -0.211956
     24 N1           18.152      1.967     -8.703 bh            1 LIG       -0.367522
     25 F3           24.312      0.843    -13.512 bj            1 LIG       -0.221577
     26 C17          27.746      0.383     -7.545 bk            1 LIG       -0.371746
     27 H1           28.628      1.578    -11.416 bl            1 LIG        0.476957
     28 H2           27.887     -0.639    -11.858 bm            1 LIG        0.115151
     29 H3           27.146      0.750    -13.712 bn            1 LIG        0.085952
     30 H4           25.277     -0.829    -13.527 bo            1 LIG        0.075838
     31 H5           24.777     -1.605     -7.864 bp            1 LIG        0.186407
     32 H6           22.694     -1.299     -9.091 bq            1 LIG        0.190447
     33 H7           21.192     -2.692    -12.020 bs            1 LIG        0.174901
     34 H8           17.787     -1.406     -9.830 bt            1 LIG        0.184221
     35 H9           21.150      1.211    -10.264 bu            1 LIG        0.179188
     36 H10          28.714      0.330     -7.064 bv            1 LIG        0.150661
     37 H11          26.950      0.472     -6.810 bw            1 LIG        0.150661
     38 H12          27.722      1.222     -8.238 bx            1 LIG        0.150661
@<TRIPOS>BOND
        1  1  2  1
        2  1  27  1
        3  2  3  1
        4  2  6  1
        5  2  28  1
        6  3  4  1
        7  3  23  1
        8  3  29  1
        9  4  5  1
        10  4  25  1
        11  4  30  1
        12  5  6  2
        13  5  10  1
        14  6  7  1
        15  7  8  2
        16  7  20  1
        17  8  9  1
        18  8  31  1
        19  9  10  2
        20  9  32  1
        21  10  11  1
        22  11  12  1
        23  12  13  2
        24  12  19  1
        25  13  14  1
        26  13  33  1
        27  14  15  1
        28  14  16  2
        29  16  17  1
        30  16  34  1
        31  17  18  1
        32  17  19  2
        33  18  24  3
        34  19  35  1
        35  20  21  2
        36  20  22  2
        37  20  26  1
        38  26  36  1
        39  26  37  1
        40  26  38  1
@<TRIPOS>SUBSTRUCTURE
       1 LIG             1 RESIDUE    0 **** ROOT      0
