@<TRIPOS>MOLECULE
LIG
54 58
SMALL
USER_CHARGES
@<TRIPOS>ATOM
      1 C1           92.666     47.261    266.341 aa            1 LIG       -0.304873
      2 C2           91.677     48.222    266.515 ab            1 LIG        0.281403
      3 C3           91.988     49.417    267.142 ad            1 LIG       -0.245405
      4 C4           93.271     49.695    267.628 ae            1 LIG       -0.000964
      5 C5           93.972     47.480    266.835 af            1 LIG        0.296416
      6 C6           94.291     48.715    267.481 ah            1 LIG        0.245517
      7 N1           95.545     48.922    267.988 ai            1 LIG       -0.481811
      8 C7           96.460     47.934    267.837 aj            1 LIG        0.165778
      9 C8           96.135     46.727    267.228 ak            1 LIG        0.172131
     10 N2           94.901     46.492    266.723 an            1 LIG       -0.487566
     11 N3           90.349     47.988    266.144 ao            1 LIG       -0.560998
     12 C9           89.810     47.244    265.086 ap            1 LIG        0.149951
     13 C10          90.524     47.099    263.892 aq            1 LIG        0.177359
     14 N4           90.043     46.448    262.807 av            1 LIG       -0.471232
     15 C11          88.802     45.911    262.899 aw            1 LIG        0.238719
     16 C12          88.021     45.991    264.050 ax            1 LIG       -0.272470
     17 C13          88.525     46.679    265.162 ay            1 LIG       -0.025231
     18 S1           87.557     46.748    266.678 az            1 LIG        0.919338
     19 O1           87.949     45.586    267.479 bb            1 LIG       -0.547576
     20 O2           87.708     48.099    267.228 bc            1 LIG       -0.547576
     21 C14          85.758     46.537    266.160 bd            1 LIG       -0.370494
     22 C15          93.454     50.931    268.415 bf            1 LIG        0.063393
     23 C16          94.420     51.912    268.136 bg            1 LIG       -0.168556
     24 C17          94.469     53.083    268.904 bh            1 LIG       -0.210869
     25 C18          92.584     51.114    269.483 bj            1 LIG       -0.227686
     26 C19          92.636     52.250    270.253 bk            1 LIG       -0.002216
     27 C20          93.564     53.227    269.956 bl            1 LIG        0.187040
     28 O3           93.415     54.342    270.727 bm            1 LIG       -0.338730
     29 C21          92.460     54.006    271.736 bn            1 LIG        0.117453
     30 C22          91.719     52.686    271.337 bo            1 LIG        0.191136
     31 C23          91.660     51.735    272.527 bp            1 LIG       -0.284044
     32 C24          90.288     52.727    270.749 bq            1 LIG       -0.284044
     33 H1           92.419     46.327    265.871 bs            1 LIG        0.166539
     34 H2           91.199     50.142    267.286 bt            1 LIG        0.157716
     35 H3           97.451     48.134    268.216 bu            1 LIG        0.058180
     36 H4           96.860     45.935    267.121 bv            1 LIG        0.059737
     37 H5           89.645     48.373    266.765 bw            1 LIG        0.379601
     38 H6           91.509     47.522    263.790 bx            1 LIG        0.084813
     39 H7           88.435     45.392    262.029 by            1 LIG        0.076738
     40 H8           87.051     45.518    264.066 bz            1 LIG        0.170897
     41 H9           85.132     46.685    267.037 cb            1 LIG        0.148136
     42 H10          85.612     45.526    265.779 ci            1 LIG        0.148136
     43 H11          85.519     47.272    265.393 cj            1 LIG        0.148136
     44 H12          95.106     51.781    267.311 ck            1 LIG        0.171838
     45 H13          95.183     53.859    268.670 cm            1 LIG        0.157354
     46 H14          91.835     50.365    269.700 cn            1 LIG        0.144771
     47 H15          91.844     54.856    272.003 ct            1 LIG        0.047149
     48 H16          93.058     53.833    272.632 cw            1 LIG        0.047149
     49 H17          92.672     51.528    272.828 da            1 LIG        0.076636
     50 H18          91.184     50.781    272.300 db            1 LIG        0.076636
     51 H19          91.157     52.186    273.383 dc            1 LIG        0.076636
     52 H20          90.202     53.527    270.015 dd            1 LIG        0.076636
     53 H21          89.537     52.914    271.517 de            1 LIG        0.076636
     54 H22          89.998     51.818    270.231 df            1 LIG        0.076636
@<TRIPOS>BOND
        1  1  2  2
        2  1  5  1
        3  1  33  1
        4  2  3  1
        5  2  11  1
        6  3  4  2
        7  3  34  1
        8  4  6  1
        9  4  22  1
        10  5  6  2
        11  5  10  1
        12  6  7  1
        13  7  8  2
        14  8  9  1
        15  8  35  1
        16  9  10  2
        17  9  36  1
        18  11  12  1
        19  11  37  1
        20  12  13  2
        21  12  17  1
        22  13  14  1
        23  13  38  1
        24  14  15  2
        25  15  16  1
        26  15  39  1
        27  16  17  2
        28  16  40  1
        29  17  18  1
        30  18  19  2
        31  18  20  2
        32  18  21  1
        33  21  41  1
        34  21  42  1
        35  21  43  1
        36  22  23  2
        37  22  25  1
        38  23  24  1
        39  23  44  1
        40  24  27  2
        41  24  45  1
        42  25  26  2
        43  25  46  1
        44  26  27  1
        45  26  30  1
        46  27  28  1
        47  28  29  1
        48  29  30  1
        49  29  47  1
        50  29  48  1
        51  30  31  1
        52  30  32  1
        53  31  49  1
        54  31  50  1
        55  31  51  1
        56  32  52  1
        57  32  53  1
        58  32  54  1
@<TRIPOS>SUBSTRUCTURE
       1 LIG             1 RESIDUE    0 **** ROOT      0
