@<TRIPOS>MOLECULE
LIG
46 49
SMALL
USER_CHARGES
@<TRIPOS>ATOM
      1 C1           93.043     49.810    267.723 aa            1 LIG       -0.001641
      2 C2           92.527     47.333    266.428 ab            1 LIG       -0.304493
      3 C3           91.513     48.272    266.584 ad            1 LIG        0.284171
      4 C4           91.778     49.482    267.215 ae            1 LIG       -0.238853
      5 C5           93.828     47.612    266.901 af            1 LIG        0.296365
      6 C6           94.102     48.858    267.551 ah            1 LIG        0.247017
      7 N1           95.359     49.115    268.028 ai            1 LIG       -0.482817
      8 C7           96.314     48.169    267.858 aj            1 LIG        0.168308
      9 C8           96.034     46.959    267.229 ak            1 LIG        0.173575
     10 N2           94.803     46.669    266.752 an            1 LIG       -0.483595
     11 C9           93.213     51.062    268.505 ao            1 LIG        0.087220
     12 C10          92.293     51.356    269.517 ap            1 LIG       -0.162532
     13 C11          92.453     52.470    270.322 aq            1 LIG       -0.180594
     14 C12          94.281     51.935    268.291 av            1 LIG       -0.162532
     15 N3           90.198     47.991    266.195 aw            1 LIG       -0.561622
     16 C13          89.653     47.240    265.147 ax            1 LIG        0.150038
     17 C14          90.388     46.996    263.981 ay            1 LIG        0.177594
     18 N4           89.892     46.342    262.903 az            1 LIG       -0.464641
     19 C15          88.619     45.881    262.984 bb            1 LIG        0.240155
     20 C16          87.812     46.065    264.108 bc            1 LIG       -0.272060
     21 C17          88.328     46.765    265.203 bd            1 LIG       -0.024872
     22 S1           87.299     46.926    266.675 bf            1 LIG        0.923824
     23 O1           87.699     48.151    267.390 bg            1 LIG       -0.548829
     24 O2           85.904     46.748    266.278 bh            1 LIG       -0.548829
     25 C18          87.842     45.440    267.682 bj            1 LIG       -0.370982
     26 C19          94.442     53.068    269.092 bk            1 LIG       -0.180594
     27 C20          93.519     53.341    270.112 bl            1 LIG       -0.063852
     28 C21          93.640     54.589    270.980 bm            1 LIG        0.683469
     29 F1           94.460     55.497    270.448 bn            1 LIG       -0.224371
     30 F2           92.446     55.125    271.125 bo            1 LIG       -0.224371
     31 F3           94.062     54.304    272.188 bp            1 LIG       -0.224371
     32 H1           92.305     46.375    265.985 bq            1 LIG        0.171401
     33 H2           90.958     50.172    267.362 bs            1 LIG        0.161761
     34 H3           97.305     48.401    268.221 bt            1 LIG        0.062776
     35 H4           96.795     46.197    267.101 bu            1 LIG        0.064569
     36 H5           91.448     50.709    269.691 bv            1 LIG        0.166420
     37 H6           91.725     52.673    271.103 bw            1 LIG        0.166406
     38 H7           95.005     51.751    267.504 bx            1 LIG        0.166420
     39 H8           89.478     48.405    266.779 by            1 LIG        0.381431
     40 H9           91.406     47.350    263.894 bz            1 LIG        0.089511
     41 H10          88.251     45.324    262.137 cb            1 LIG        0.079885
     42 H11          86.814     45.646    264.140 ci            1 LIG        0.172858
     43 H12          87.265     45.422    268.602 cj            1 LIG        0.148291
     44 H13          88.904     45.533    267.900 ck            1 LIG        0.148291
     45 H14          87.657     44.540    267.094 cm            1 LIG        0.148291
     46 H15          95.274     53.734    268.908 cn            1 LIG        0.166406
@<TRIPOS>BOND
        1  1  4  2
        2  1  6  1
        3  1  11  1
        4  2  3  2
        5  2  5  1
        6  2  32  1
        7  3  4  1
        8  3  15  1
        9  4  33  1
        10  5  6  2
        11  5  10  1
        12  6  7  1
        13  7  8  2
        14  8  9  1
        15  8  34  1
        16  9  10  2
        17  9  35  1
        18  11  12  2
        19  11  14  1
        20  12  13  1
        21  12  36  1
        22  13  27  2
        23  13  37  1
        24  14  26  2
        25  14  38  1
        26  15  16  1
        27  15  39  1
        28  16  17  2
        29  16  21  1
        30  17  18  1
        31  17  40  1
        32  18  19  2
        33  19  20  1
        34  19  41  1
        35  20  21  2
        36  20  42  1
        37  21  22  1
        38  22  23  2
        39  22  24  2
        40  22  25  1
        41  25  43  1
        42  25  44  1
        43  25  45  1
        44  26  27  1
        45  26  46  1
        46  27  28  1
        47  28  29  1
        48  28  30  1
        49  28  31  1
@<TRIPOS>SUBSTRUCTURE
       1 LIG             1 RESIDUE    0 **** ROOT      0
