@<TRIPOS>MOLECULE
LIG
49 52
SMALL
USER_CHARGES
@<TRIPOS>ATOM
      1 C1           91.608     48.333    266.674 aa            1 LIG        0.282343
      2 C2           91.977     49.523    267.270 ab            1 LIG       -0.241821
      3 C3           93.289     49.791    267.668 ad            1 LIG       -0.000399
      4 C4           92.562     47.328    266.482 ae            1 LIG       -0.308317
      5 C5           93.896     47.533    266.918 af            1 LIG        0.294753
      6 C6           94.275     48.765    267.503 ah            1 LIG        0.246083
      7 N1           95.558     48.961    267.933 ai            1 LIG       -0.481968
      8 C7           96.445     47.950    267.752 aj            1 LIG        0.166214
      9 C8           96.065     46.738    267.199 ak            1 LIG        0.172328
     10 N2           94.792     46.513    266.775 an            1 LIG       -0.488959
     11 N3           90.264     48.115    266.311 ao            1 LIG       -0.561023
     12 C9           93.604     51.084    268.308 ap            1 LIG        0.072579
     13 C10          94.582     51.943    267.795 aq            1 LIG       -0.168226
     14 C11          94.831     53.165    268.413 av            1 LIG       -0.194435
     15 C12          92.914     51.450    269.461 aw            1 LIG       -0.168226
     16 C13          93.168     52.674    270.099 ax            1 LIG       -0.194435
     17 C14          94.120     53.542    269.536 ay            1 LIG        0.093515
     18 C15          89.715     47.338    265.286 az            1 LIG        0.149865
     19 C16          90.415     47.125    264.096 bb            1 LIG        0.177486
     20 N4           89.907     46.443    263.039 bc            1 LIG       -0.465888
     21 C17          88.655     45.940    263.163 bd            1 LIG        0.239368
     22 C18          87.885     46.088    264.322 bf            1 LIG       -0.272537
     23 C19          88.424     46.797    265.398 bg            1 LIG       -0.024843
     24 S1           87.482     46.900    266.926 bh            1 LIG        0.919436
     25 O1           86.134     46.386    266.671 bj            1 LIG       -0.548716
     26 O2           87.664     48.243    267.476 bk            1 LIG       -0.548716
     27 C20          88.374     45.675    268.037 bl            1 LIG       -0.370012
     28 C21          94.354     54.917    270.180 bm            1 LIG        0.050898
     29 C22          93.326     55.351    271.228 bn            1 LIG       -0.255935
     30 H1           91.215     50.284    267.428 bo            1 LIG        0.158736
     31 H2           92.281     46.380    266.051 bp            1 LIG        0.166458
     32 H3           97.471     48.144    268.047 bq            1 LIG        0.057740
     33 H4           96.771     45.940    267.037 bs            1 LIG        0.059452
     34 H5           89.580     48.600    266.874 bt            1 LIG        0.378825
     35 H6           95.122     51.664    266.906 bu            1 LIG        0.145892
     36 H7           95.576     53.826    267.978 bv            1 LIG        0.141265
     37 H8           92.169     50.795    269.900 bw            1 LIG        0.145892
     38 H9           92.623     52.904    270.991 bx            1 LIG        0.141265
     39 H10          91.408     47.527    263.966 by            1 LIG        0.091146
     40 H11          88.269     45.387    262.318 bz            1 LIG        0.077976
     41 H12          86.903     45.644    264.375 cb            1 LIG        0.169120
     42 H13          87.868     45.638    269.004 ci            1 LIG        0.147817
     43 H14          89.407     46.002    268.165 cj            1 LIG        0.147817
     44 H15          88.345     44.691    267.570 ck            1 LIG        0.147817
     45 H16          94.511     55.647    269.372 cm            1 LIG        0.020656
     46 H17          95.262     54.979    270.801 cn            1 LIG        0.020656
     47 H18          93.663     56.317    271.627 ct            1 LIG        0.070353
     48 H19          93.332     54.667    272.083 cw            1 LIG        0.070353
     49 H20          92.310     55.445    270.865 da            1 LIG        0.070353
@<TRIPOS>BOND
        1  1  2  2
        2  1  4  1
        3  1  11  1
        4  2  3  1
        5  2  30  1
        6  3  6  2
        7  3  12  1
        8  4  5  2
        9  4  31  1
        10  5  6  1
        11  5  10  1
        12  6  7  1
        13  7  8  2
        14  8  9  1
        15  8  32  1
        16  9  10  2
        17  9  33  1
        18  11  18  1
        19  11  34  1
        20  12  13  2
        21  12  15  1
        22  13  14  1
        23  13  35  1
        24  14  17  2
        25  14  36  1
        26  15  16  2
        27  15  37  1
        28  16  17  1
        29  16  38  1
        30  17  28  1
        31  18  19  2
        32  18  23  1
        33  19  20  1
        34  19  39  1
        35  20  21  2
        36  21  22  1
        37  21  40  1
        38  22  23  2
        39  22  41  1
        40  23  24  1
        41  24  25  2
        42  24  26  2
        43  24  27  1
        44  27  42  1
        45  27  43  1
        46  27  44  1
        47  28  29  1
        48  28  45  1
        49  28  46  1
        50  29  47  1
        51  29  48  1
        52  29  49  1
@<TRIPOS>SUBSTRUCTURE
       1 LIG             1 RESIDUE    0 **** ROOT      0
