@<TRIPOS>MOLECULE
LIG
53 57
SMALL
USER_CHARGES
@<TRIPOS>ATOM
      1 C1           -6.371     12.358    -12.006 aa            1 LIG        0.007943
      2 C2           -6.519     11.808    -10.730 ab            1 LIG       -0.242911
      3 C3           -7.719     10.570    -13.032 ad            1 LIG       -0.205252
      4 C4           -6.984     11.764    -13.124 ae            1 LIG       -0.179364
      5 C5           -7.819     10.007    -11.758 af            1 LIG        0.070674
      6 C6           -7.243     10.621    -10.599 ah            1 LIG        0.056234
      7 C7           -7.616      9.749     -9.512 ai            1 LIG        0.098995
      8 N1           -8.281      8.734     -9.989 aj            1 LIG       -0.423577
      9 N2           -8.414      8.859    -11.301 ak            1 LIG       -0.023741
     10 C8           -7.338      9.889     -8.025 an            1 LIG        0.032060
     11 N3           -4.363     13.719    -11.499 ao            1 LIG       -0.351883
     12 C9           -5.550     13.636    -12.191 ap            1 LIG        0.669088
     13 O1           -5.946     14.525    -12.947 aq            1 LIG       -0.628939
     14 C10          -5.961     10.485     -7.736 av            1 LIG        0.091734
     15 C11          -4.810      9.764     -8.053 aw            1 LIG       -0.195926
     16 C12          -3.552     10.312     -7.802 ax            1 LIG       -0.196872
     17 C13          -3.444     11.588     -7.238 ay            1 LIG        0.103873
     18 C14          -4.595     12.305     -6.917 az            1 LIG       -0.196872
     19 C15          -5.851     11.756     -7.163 bb            1 LIG       -0.195926
     20 C16          -2.100     12.178     -6.976 bc            1 LIG        0.032625
     21 C17          -1.765     13.435     -6.479 bd            1 LIG       -0.193530
     22 N4           -0.430     13.489     -6.417 bf            1 LIG        0.227403
     23 N5            0.170     12.402     -6.809 bg            1 LIG       -0.437278
     24 C18          -0.803     11.586     -7.177 bh            1 LIG       -0.017252
     25 C19           0.388     14.607     -5.967 bj            1 LIG       -0.205327
     26 C20          -3.513     14.907    -11.605 bk            1 LIG        0.017372
     27 C21          -2.204     14.468    -10.938 bl            1 LIG        0.188118
     28 C22          -2.223     12.944    -10.983 bm            1 LIG       -0.040789
     29 C23          -3.720     12.574    -10.821 bn            1 LIG        0.026949
     30 O2           -1.048     15.041    -11.486 bo            1 LIG       -0.702679
     31 H1           -6.090     12.294     -9.866 bp            1 LIG        0.147996
     32 H2           -8.171     10.111    -13.906 bq            1 LIG        0.142611
     33 H3           -6.859     12.225    -14.093 bs            1 LIG        0.160814
     34 H4           -8.907      8.151    -11.835 bt            1 LIG        0.284849
     35 H5           -8.101     10.543     -7.597 bu            1 LIG        0.041432
     36 H6           -7.444      8.925     -7.523 bv            1 LIG        0.041432
     37 H7           -4.893      8.781     -8.497 bw            1 LIG        0.138092
     38 H8           -2.661      9.750     -8.047 bx            1 LIG        0.137372
     39 H9           -4.512     13.286     -6.478 by            1 LIG        0.137372
     40 H10          -6.738     12.316     -6.915 bz            1 LIG        0.138092
     41 H11          -2.361     14.279     -6.171 cb            1 LIG        0.151674
     42 H12          -0.601     10.591     -7.558 ci            1 LIG        0.144091
     43 H13          -0.231     15.449     -5.663 cj            1 LIG        0.107069
     44 H14           1.052     14.932     -6.771 ck            1 LIG        0.107069
     45 H15           1.005     14.299     -5.121 cm            1 LIG        0.107069
     46 H16          -3.315     15.148    -12.651 cn            1 LIG        0.070028
     47 H17          -3.941     15.767    -11.095 ct            1 LIG        0.070028
     48 H18          -2.217     14.761     -9.884 cw            1 LIG        0.055499
     49 H19          -1.830     12.623    -11.954 da            1 LIG        0.031607
     50 H20          -1.548     12.484    -10.252 db            1 LIG        0.031607
     51 H21          -3.943     12.612     -9.757 dc            1 LIG        0.047891
     52 H22          -3.904     11.593    -11.274 dd            1 LIG        0.047891
     53 H23          -1.269     15.521    -12.307 de            1 LIG        0.473466
@<TRIPOS>BOND
        1  1  2  2
        2  1  4  1
        3  1  12  1
        4  2  6  1
        5  2  31  1
        6  3  4  2
        7  3  5  1
        8  3  32  1
        9  4  33  1
        10  5  6  2
        11  5  9  1
        12  6  7  1
        13  7  8  2
        14  7  10  1
        15  8  9  1
        16  9  34  1
        17  10  14  1
        18  10  35  1
        19  10  36  1
        20  11  12  1
        21  11  26  1
        22  11  29  1
        23  12  13  2
        24  14  15  2
        25  14  19  1
        26  15  16  1
        27  15  37  1
        28  16  17  2
        29  16  38  1
        30  17  18  1
        31  17  20  1
        32  18  19  2
        33  18  39  1
        34  19  40  1
        35  20  21  2
        36  20  24  1
        37  21  22  1
        38  21  41  1
        39  22  23  1
        40  22  25  1
        41  23  24  2
        42  24  42  1
        43  25  43  1
        44  25  44  1
        45  25  45  1
        46  26  27  1
        47  26  46  1
        48  26  47  1
        49  27  28  1
        50  27  30  1
        51  27  48  1
        52  28  29  1
        53  28  49  1
        54  28  50  1
        55  29  51  1
        56  29  52  1
        57  30  53  1
@<TRIPOS>SUBSTRUCTURE
       1 LIG             1 RESIDUE    0 **** ROOT      0
