@<TRIPOS>MOLECULE
LIG
33 34
SMALL
USER_CHARGES
@<TRIPOS>ATOM
      1 C1           27.339      0.192    -11.490 aa            1 LIG       -0.265614
      2 C2           24.811     -0.032    -11.490 ab            1 LIG        0.060105
      3 C3           26.032     -0.216    -10.810 ad            1 LIG        0.065594
      4 C4           26.023     -0.776     -9.515 ae            1 LIG       -0.025102
      5 C5           24.800     -1.083     -8.907 af            1 LIG       -0.182960
      6 C6           23.604     -0.936     -9.604 ah            1 LIG       -0.210403
      7 C7           23.605     -0.433    -10.913 ai            1 LIG        0.229098
      8 O1           22.470     -0.308    -11.689 aj            1 LIG       -0.303201
      9 C8           21.237     -0.582    -11.190 ak            1 LIG        0.276007
     10 C9           20.671     -1.835    -11.400 an            1 LIG       -0.285810
     11 C10          19.420     -2.113    -10.863 ao            1 LIG        0.227510
     12 C11          18.741     -1.138    -10.138 ap            1 LIG       -0.273383
     13 C12          19.293      0.126     -9.959 aq            1 LIG        0.170265
     14 Cl1          18.433      1.350     -9.099 av            1 LIG       -0.099742
     15 C13          20.551      0.397    -10.476 aw            1 LIG       -0.270256
     16 S1           27.537     -1.087     -8.569 ax            1 LIG        0.915451
     17 O2           27.205     -2.006     -7.477 ay            1 LIG       -0.539754
     18 C14          27.934      0.607     -7.855 az            1 LIG       -0.368868
     19 C15          24.767      0.601    -12.807 bb            1 LIG        0.229550
     20 N1           24.732      1.105    -13.844 bc            1 LIG       -0.376996
     21 F1           18.858     -3.323    -11.049 bd            1 LIG       -0.151963
     22 O3           28.634     -1.478     -9.449 bf            1 LIG       -0.539754
     23 H1           28.151     -0.479    -11.307 bg            1 LIG        0.114080
     24 H2           27.643      1.192    -11.194 bh            1 LIG        0.114080
     25 H3           27.304      0.110    -12.571 bj            1 LIG        0.114080
     26 H4           24.764     -1.453     -7.892 bk            1 LIG        0.191153
     27 H5           22.685     -1.229     -9.118 bl            1 LIG        0.171834
     28 H6           21.205     -2.588    -11.959 bm            1 LIG        0.179607
     29 H7           17.794     -1.375     -9.704 bn            1 LIG        0.195538
     30 H8           20.997      1.361    -10.297 bo            1 LIG        0.194688
     31 H9           28.863      0.515     -7.304 bp            1 LIG        0.148389
     32 H10          27.126      0.920     -7.199 bq            1 LIG        0.148389
     33 H11          28.062      1.326     -8.664 bs            1 LIG        0.148389
@<TRIPOS>BOND
        1  1  3  1
        2  1  23  1
        3  1  24  1
        4  1  25  1
        5  2  3  2
        6  2  7  1
        7  2  19  1
        8  3  4  1
        9  4  5  2
        10  4  16  1
        11  5  6  1
        12  5  26  1
        13  6  7  2
        14  6  27  1
        15  7  8  1
        16  8  9  1
        17  9  10  2
        18  9  15  1
        19  10  11  1
        20  10  28  1
        21  11  12  2
        22  11  21  1
        23  12  13  1
        24  12  29  1
        25  13  14  1
        26  13  15  2
        27  15  30  1
        28  16  17  2
        29  16  18  1
        30  16  22  2
        31  18  31  1
        32  18  32  1
        33  18  33  1
        34  19  20  3
@<TRIPOS>SUBSTRUCTURE
       1 LIG             1 RESIDUE    0 **** ROOT      0
