@<TRIPOS>MOLECULE
LIG
47 50
SMALL
USER_CHARGES
@<TRIPOS>ATOM
      1 C1           -2.209     12.942    -10.970 aa            1 LIG        0.194828
      2 C2           -2.190     14.467    -10.942 ab            1 LIG       -0.039904
      3 C3           -3.699     12.588    -10.838 ad            1 LIG        0.024468
      4 O1           -1.683     12.474    -12.180 ae            1 LIG       -0.701364
      5 C4           -3.511     14.914    -11.609 af            1 LIG        0.027771
      6 N1           -4.344     13.720    -11.524 ah            1 LIG       -0.343599
      7 C5           -6.353     12.360    -12.034 ai            1 LIG       -0.054091
      8 C6           -6.973     11.756    -13.137 aj            1 LIG        0.249569
      9 C7           -7.710     10.563    -13.034 ak            1 LIG       -0.299982
     10 C8           -6.500     11.806    -10.749 an            1 LIG       -0.243806
     11 O2           -6.851     12.307    -14.382 ao            1 LIG       -0.605337
     12 C9           -5.538     13.638    -12.200 ap            1 LIG        0.679714
     13 O3           -5.950     14.544    -12.918 aq            1 LIG       -0.609476
     14 C10          -7.231     10.616    -10.613 av            1 LIG        0.047386
     15 C11          -7.808     10.011    -11.752 aw            1 LIG        0.070752
     16 N2           -8.420      8.867    -11.288 ax            1 LIG       -0.027791
     17 N3           -8.285      8.740     -9.976 ay            1 LIG       -0.426650
     18 C12          -7.605      9.747     -9.514 az            1 LIG        0.101246
     19 C13          -7.326      9.895     -8.024 bb            1 LIG        0.032077
     20 C14          -5.960     10.480     -7.735 bc            1 LIG        0.092238
     21 C15          -4.808      9.760     -8.049 bd            1 LIG       -0.202550
     22 C16          -3.436     11.581     -7.242 bf            1 LIG       -0.200129
     23 C17          -4.583     12.306     -6.923 bg            1 LIG        0.148357
     24 C18          -3.548     10.311     -7.802 bh            1 LIG       -0.140028
     25 C19          -5.847     11.754     -7.167 bj            1 LIG       -0.254612
     26 C20          -4.465     13.695     -6.324 bk            1 LIG       -0.240808
     27 H1           -1.613     12.484    -10.162 bl            1 LIG        0.024012
     28 H2           -2.155     14.818     -9.925 bm            1 LIG        0.030123
     29 H3           -1.316     14.898    -11.457 bn            1 LIG        0.030123
     30 H4           -3.946     12.568     -9.774 bo            1 LIG        0.077203
     31 H5           -3.874     11.602    -11.300 bp            1 LIG        0.077203
     32 H6           -0.832     12.897    -12.331 bq            1 LIG        0.467460
     33 H7           -3.314     15.210    -12.638 bs            1 LIG        0.050033
     34 H8           -3.941     15.745    -11.042 bt            1 LIG        0.050033
     35 H9           -8.176     10.101    -13.896 bu            1 LIG        0.138217
     36 H10          -6.059     12.279     -9.876 bv            1 LIG        0.156121
     37 H11          -7.383     11.857    -15.046 bw            1 LIG        0.479600
     38 H12          -8.926      8.174    -11.831 bx            1 LIG        0.283133
     39 H13          -8.095     10.528     -7.580 by            1 LIG        0.039418
     40 H14          -7.423      8.916     -7.519 bz            1 LIG        0.039418
     41 H15          -4.883      8.777     -8.490 cb            1 LIG        0.129529
     42 H16          -2.458     12.002     -7.053 ci            1 LIG        0.137733
     43 H17          -2.653      9.749     -8.047 cj            1 LIG        0.134712
     44 H18          -6.737     12.319     -6.923 ck            1 LIG        0.139261
     45 H19          -3.536     14.175     -6.630 cm            1 LIG        0.079463
     46 H20          -4.503     13.656     -5.233 cn            1 LIG        0.079463
     47 H21          -5.273     14.330     -6.681 ct            1 LIG        0.079463
@<TRIPOS>BOND
        1  1  2  1
        2  1  3  1
        3  1  4  1
        4  1  27  1
        5  2  5  1
        6  2  28  1
        7  2  29  1
        8  3  6  1
        9  3  30  1
        10  3  31  1
        11  4  32  1
        12  5  6  1
        13  5  33  1
        14  5  34  1
        15  6  12  1
        16  7  8  2
        17  7  10  1
        18  7  12  1
        19  8  9  1
        20  8  11  1
        21  9  15  2
        22  9  35  1
        23  10  14  2
        24  10  36  1
        25  11  37  1
        26  12  13  2
        27  14  15  1
        28  14  18  1
        29  15  16  1
        30  16  17  1
        31  16  38  1
        32  17  18  2
        33  18  19  1
        34  19  20  1
        35  19  39  1
        36  19  40  1
        37  20  21  2
        38  20  25  1
        39  21  24  1
        40  21  41  1
        41  22  23  1
        42  22  24  2
        43  22  42  1
        44  23  25  2
        45  23  26  1
        46  24  43  1
        47  25  44  1
        48  26  45  1
        49  26  46  1
        50  26  47  1
@<TRIPOS>SUBSTRUCTURE
       1 LIG             1 RESIDUE    0 **** ROOT      0
