@<TRIPOS>MOLECULE
LIG
47 51
SMALL
USER_CHARGES
@<TRIPOS>ATOM
      1 C1           -4.257     -3.104     13.569 aa            1 LIG        0.065231
      2 O1           -3.874     -2.360     14.716 ab            1 LIG       -0.353729
      3 C2           -2.526     -2.111     14.817 ad            1 LIG        0.191326
      4 C3           -1.745     -2.870     15.682 ae            1 LIG       -0.222126
      5 C4           -0.390     -2.610     15.814 af            1 LIG       -0.225125
      6 C5            0.220     -1.585     15.086 ah            1 LIG        0.271885
      7 N1            1.604     -1.360     15.321 ai            1 LIG       -0.567725
      8 C6            2.537     -0.446     14.759 aj            1 LIG        0.445972
      9 N2            2.183      0.371     13.722 ak            1 LIG       -0.554332
     10 C7            3.116      1.239     13.218 an            1 LIG        0.211576
     11 C8            4.420      1.285     13.704 ao            1 LIG       -0.119422
     12 N3            4.747      0.489     14.761 ap            1 LIG        0.062485
     13 C9            5.898      0.377     15.487 aq            1 LIG       -0.164192
     14 C10           5.587     -0.522     16.530 av            1 LIG        0.030590
     15 N4            4.375     -1.042     16.374 aw            1 LIG       -0.517637
     16 C11           3.837     -0.392     15.326 ax            1 LIG        0.172540
     17 C12           2.642      2.163     12.118 ay            1 LIG        0.103575
     18 C13           3.548      2.640     11.160 az            1 LIG       -0.193339
     19 C14           3.154      3.468     10.098 bb            1 LIG       -0.204536
     20 C15           1.805      3.804     10.032 bc            1 LIG        0.069817
     21 N5            1.088      4.564      9.132 bd            1 LIG       -0.020259
     22 N6           -0.203      4.633      9.456 bf            1 LIG       -0.401678
     23 C16          -0.378      3.949     10.560 bg            1 LIG       -0.011388
     24 C17           0.867      3.365     10.994 bh            1 LIG        0.063605
     25 C18           1.288      2.547     12.053 bj            1 LIG       -0.238531
     26 C19          -0.555     -0.819     14.192 bk            1 LIG       -0.297331
     27 C20          -1.945     -1.089     14.062 bl            1 LIG        0.201212
     28 O2           -2.754     -0.357     13.205 bm            1 LIG       -0.349191
     29 C21          -2.233      0.644     12.352 bn            1 LIG        0.064785
     30 H1           -5.336     -3.252     13.587 bo            1 LIG        0.055378
     31 H2           -3.789     -4.090     13.559 bp            1 LIG        0.055378
     32 H3           -4.013     -2.580     12.644 bq            1 LIG        0.055378
     33 H4           -2.193     -3.663     16.263 bs            1 LIG        0.156901
     34 H5            0.199     -3.207     16.498 bt            1 LIG        0.187951
     35 H6            1.990     -1.933     16.052 bu            1 LIG        0.362077
     36 H7            5.182      1.964     13.343 bv            1 LIG        0.119769
     37 H8            6.786      0.946     15.276 bw            1 LIG        0.147652
     38 H9            6.227     -0.790     17.353 bx            1 LIG        0.147277
     39 H10           4.588      2.344     11.225 by            1 LIG        0.141814
     40 H11           3.854      3.813      9.373 bz            1 LIG        0.139036
     41 H12           1.437      5.038      8.306 cb            1 LIG        0.283603
     42 H13          -1.347      3.864     11.027 ci            1 LIG        0.152512
     43 H14           0.593      2.222     12.800 cj            1 LIG        0.162833
     44 H15          -0.108     -0.033     13.625 ck            1 LIG        0.150830
     45 H16          -3.051      1.073     11.770 cm            1 LIG        0.055851
     46 H17          -1.510      0.234     11.650 cn            1 LIG        0.055851
     47 H18          -1.782      1.450     12.928 ct            1 LIG        0.055851
@<TRIPOS>BOND
        1  1  2  1
        2  1  30  1
        3  1  31  1
        4  1  32  1
        5  2  3  1
        6  3  4  2
        7  3  27  1
        8  4  5  1
        9  4  33  1
        10  5  6  2
        11  5  34  1
        12  6  7  1
        13  6  26  1
        14  7  8  1
        15  7  35  1
        16  8  9  2
        17  8  16  1
        18  9  10  1
        19  10  11  2
        20  10  17  1
        21  11  12  1
        22  11  36  1
        23  12  13  1
        24  12  16  1
        25  13  14  2
        26  13  37  1
        27  14  15  1
        28  14  38  1
        29  15  16  2
        30  17  18  2
        31  17  25  1
        32  18  19  1
        33  18  39  1
        34  19  20  2
        35  19  40  1
        36  20  21  1
        37  20  24  1
        38  21  22  1
        39  21  41  1
        40  22  23  2
        41  23  24  1
        42  23  42  1
        43  24  25  2
        44  25  43  1
        45  26  27  2
        46  26  44  1
        47  27  28  1
        48  28  29  1
        49  29  45  1
        50  29  46  1
        51  29  47  1
@<TRIPOS>SUBSTRUCTURE
       1 LIG             1 RESIDUE    0 **** ROOT      0
