@<TRIPOS>MOLECULE
LIG
50 54
SMALL
USER_CHARGES
@<TRIPOS>ATOM
      1 C1           -6.389     12.368    -12.037 aa            1 LIG        0.007716
      2 C2           -6.482     11.810    -10.751 ab            1 LIG       -0.225848
      3 C3           -7.727     10.575    -13.029 ad            1 LIG       -0.205966
      4 C4           -7.018     11.771    -13.129 ae            1 LIG       -0.190922
      5 C5           -7.817     10.014    -11.752 af            1 LIG        0.071315
      6 C6           -7.224     10.624    -10.602 ah            1 LIG        0.057378
      7 C7           -7.604      9.751     -9.507 ai            1 LIG        0.102372
      8 N1           -8.283      8.744     -9.981 aj            1 LIG       -0.422040
      9 N2           -8.417      8.870    -11.295 ak            1 LIG       -0.024583
     10 C8           -7.330      9.885     -8.020 an            1 LIG        0.032873
     11 N3           -4.342     13.653    -11.795 ao            1 LIG       -0.344474
     12 C9           -5.611     13.640    -12.259 ap            1 LIG        0.675806
     13 O1           -6.104     14.577    -12.883 aq            1 LIG       -0.608825
     14 C10          -5.960     10.485     -7.734 av            1 LIG        0.092022
     15 C11          -4.808      9.767     -8.051 aw            1 LIG       -0.196412
     16 C12          -3.555     10.319     -7.802 ax            1 LIG       -0.194967
     17 C13          -3.447     11.593     -7.235 ay            1 LIG        0.105745
     18 C14          -4.603     12.307     -6.915 az            1 LIG       -0.194967
     19 C15          -5.856     11.756     -7.161 bb            1 LIG       -0.196412
     20 C16          -2.102     12.184     -6.971 bc            1 LIG        0.035130
     21 C17          -1.771     13.439     -6.470 bd            1 LIG       -0.193160
     22 N4           -0.435     13.495     -6.410 bf            1 LIG        0.225922
     23 N5            0.171     12.411     -6.807 bg            1 LIG       -0.438420
     24 C18          -0.803     11.594     -7.176 bh            1 LIG       -0.015981
     25 C19           0.377     14.614     -5.958 bj            1 LIG       -0.203684
     26 C20          -3.442     12.536    -11.395 bk            1 LIG       -0.047488
     27 C21          -2.323     13.614    -11.407 bl            1 LIG        0.154137
     28 C22          -3.296     14.682    -11.959 bm            1 LIG       -0.047488
     29 O2           -1.738     13.936    -10.156 bn            1 LIG       -0.682559
     30 H1           -6.018     12.292     -9.899 bo            1 LIG        0.168655
     31 H2           -8.178     10.116    -13.894 bp            1 LIG        0.139186
     32 H3           -6.921     12.237    -14.098 bq            1 LIG        0.148812
     33 H4           -8.918      8.168    -11.830 bs            1 LIG        0.283396
     34 H5           -8.093     10.538     -7.592 bt            1 LIG        0.040037
     35 H6           -7.433      8.922     -7.514 bu            1 LIG        0.040037
     36 H7           -4.889      8.784     -8.495 bv            1 LIG        0.138081
     37 H8           -2.664      9.759     -8.048 bw            1 LIG        0.136650
     38 H9           -4.524     13.289     -6.473 bx            1 LIG        0.136650
     39 H10          -6.746     12.313     -6.915 by            1 LIG        0.138081
     40 H11          -2.373     14.279     -6.162 bz            1 LIG        0.149351
     41 H12          -0.600     10.605     -7.565 cb            1 LIG        0.144439
     42 H13          -0.250     15.451     -5.652 ci            1 LIG        0.104713
     43 H14           1.034     14.938     -6.766 cj            1 LIG        0.104713
     44 H15           0.993     14.299     -5.115 ck            1 LIG        0.104713
     45 H16          -3.585     12.047    -10.427 cm            1 LIG        0.092719
     46 H17          -3.401     11.826    -12.229 cn            1 LIG        0.092719
     47 H18          -1.494     13.380    -12.079 ct            1 LIG        0.054776
     48 H19          -3.241     14.906    -13.015 cw            1 LIG        0.092719
     49 H20          -3.349     15.597    -11.368 da            1 LIG        0.092719
     50 H21          -1.033     13.312     -9.964 db            1 LIG        0.470613
@<TRIPOS>BOND
        1  1  2  2
        2  1  4  1
        3  1  12  1
        4  2  6  1
        5  2  30  1
        6  3  4  2
        7  3  5  1
        8  3  31  1
        9  4  32  1
        10  5  6  2
        11  5  9  1
        12  6  7  1
        13  7  8  2
        14  7  10  1
        15  8  9  1
        16  9  33  1
        17  10  14  1
        18  10  34  1
        19  10  35  1
        20  11  12  1
        21  11  26  1
        22  11  28  1
        23  12  13  2
        24  14  15  2
        25  14  19  1
        26  15  16  1
        27  15  36  1
        28  16  17  2
        29  16  37  1
        30  17  18  1
        31  17  20  1
        32  18  19  2
        33  18  38  1
        34  19  39  1
        35  20  21  2
        36  20  24  1
        37  21  22  1
        38  21  40  1
        39  22  23  1
        40  22  25  1
        41  23  24  2
        42  24  41  1
        43  25  42  1
        44  25  43  1
        45  25  44  1
        46  26  27  1
        47  26  45  1
        48  26  46  1
        49  27  28  1
        50  27  29  1
        51  27  47  1
        52  28  48  1
        53  28  49  1
        54  29  50  1
@<TRIPOS>SUBSTRUCTURE
       1 LIG             1 RESIDUE    0 **** ROOT      0
