@<TRIPOS>MOLECULE
LIG
50 54
SMALL
USER_CHARGES
@<TRIPOS>ATOM
      1 C1           -4.257     -3.105     13.569 aa            1 LIG        0.066693
      2 O1           -3.873     -2.360     14.715 ab            1 LIG       -0.361532
      3 C2           -2.525     -2.111     14.817 ad            1 LIG        0.187950
      4 C3           -1.748     -2.873     15.678 ae            1 LIG       -0.221858
      5 C4           -0.391     -2.618     15.808 af            1 LIG       -0.220488
      6 C5            0.222     -1.589     15.086 ah            1 LIG        0.273741
      7 N1            1.607     -1.371     15.315 ai            1 LIG       -0.566469
      8 C6            2.535     -0.447     14.761 aj            1 LIG        0.446036
      9 N2            2.176      0.380     13.732 ak            1 LIG       -0.553250
     10 C7            3.111      1.238     13.218 an            1 LIG        0.212068
     11 C8            4.418      1.280     13.697 ao            1 LIG       -0.118503
     12 N3            4.746      0.488     14.758 ap            1 LIG        0.063058
     13 C9            5.899      0.378     15.484 aq            1 LIG       -0.164168
     14 C10           5.590     -0.528     16.527 av            1 LIG        0.031198
     15 N4            4.378     -1.044     16.371 aw            1 LIG       -0.515340
     16 C11           3.836     -0.392     15.326 ax            1 LIG        0.172708
     17 C12           2.635      2.160     12.121 ay            1 LIG        0.110194
     18 C13           3.546      2.645     11.165 az            1 LIG       -0.193599
     19 C14           3.147      3.464     10.111 bb            1 LIG       -0.191382
     20 C15           1.803      3.817     10.016 bc            1 LIG        0.059171
     21 C16           0.996      4.597      9.115 bd            1 LIG       -0.014749
     22 N5           -0.246      4.611      9.505 bf            1 LIG       -0.417274
     23 N6           -0.336      3.901     10.618 bg            1 LIG        0.197834
     24 C17          -1.627      3.783     11.269 bh            1 LIG       -0.198335
     25 C18           0.883      3.358     10.993 bj            1 LIG        0.060557
     26 C19           1.270      2.534     12.060 bk            1 LIG       -0.260520
     27 C20          -0.555     -0.815     14.199 bl            1 LIG       -0.282298
     28 C21          -1.944     -1.086     14.066 bm            1 LIG        0.201110
     29 O2           -2.751     -0.353     13.214 bn            1 LIG       -0.375315
     30 C22          -2.222      0.607     12.333 bo            1 LIG        0.069156
     31 H1           -5.336     -3.253     13.587 bp            1 LIG        0.054491
     32 H2           -3.787     -4.089     13.558 bq            1 LIG        0.054491
     33 H3           -4.013     -2.581     12.643 bs            1 LIG        0.054491
     34 H4           -2.199     -3.665     16.257 bt            1 LIG        0.156057
     35 H5            0.198     -3.219     16.488 bu            1 LIG        0.190726
     36 H6            2.005     -1.973     16.020 bv            1 LIG        0.365820
     37 H7            5.182      1.953     13.333 bw            1 LIG        0.119419
     38 H8            6.784      0.954     15.275 bx            1 LIG        0.148117
     39 H9            6.231     -0.800     17.350 by            1 LIG        0.148824
     40 H10           4.587      2.357     11.231 bz            1 LIG        0.159748
     41 H11           3.860      3.808      9.384 cb            1 LIG        0.143095
     42 H12           1.310      5.119      8.231 ci            1 LIG        0.146948
     43 H13          -1.563      4.183     12.278 cj            1 LIG        0.102444
     44 H14          -1.899      2.747     11.288 ck            1 LIG        0.102444
     45 H15          -2.409      4.314     10.719 cm            1 LIG        0.102444
     46 H16           0.568      2.200     12.800 cn            1 LIG        0.134171
     47 H17          -0.109     -0.021     13.637 ct            1 LIG        0.163044
     48 H18          -3.044      1.038     11.755 cw            1 LIG        0.052277
     49 H19          -1.516      0.177     11.624 da            1 LIG        0.052277
     50 H20          -1.747      1.412     12.893 db            1 LIG        0.052277
@<TRIPOS>BOND
        1  1  2  1
        2  1  31  1
        3  1  32  1
        4  1  33  1
        5  2  3  1
        6  3  4  2
        7  3  28  1
        8  4  5  1
        9  4  34  1
        10  5  6  2
        11  5  35  1
        12  6  7  1
        13  6  27  1
        14  7  8  1
        15  7  36  1
        16  8  9  2
        17  8  16  1
        18  9  10  1
        19  10  11  2
        20  10  17  1
        21  11  12  1
        22  11  37  1
        23  12  13  1
        24  12  16  1
        25  13  14  2
        26  13  38  1
        27  14  15  1
        28  14  39  1
        29  15  16  2
        30  17  18  2
        31  17  26  1
        32  18  19  1
        33  18  40  1
        34  19  20  2
        35  19  41  1
        36  20  21  1
        37  20  25  1
        38  21  22  2
        39  21  42  1
        40  22  23  1
        41  23  24  1
        42  23  25  1
        43  24  43  1
        44  24  44  1
        45  24  45  1
        46  25  26  2
        47  26  46  1
        48  27  28  2
        49  27  47  1
        50  28  29  1
        51  29  30  1
        52  30  48  1
        53  30  49  1
        54  30  50  1
@<TRIPOS>SUBSTRUCTURE
       1 LIG             1 RESIDUE    0 **** ROOT      0
