@<TRIPOS>MOLECULE
LIG
40 42
SMALL
USER_CHARGES
@<TRIPOS>ATOM
      1 O1           27.899      1.169    -10.816 aa            1 LIG       -0.691613
      2 C1           27.306      0.082    -11.497 ab            1 LIG        0.210813
      3 C2           26.754      0.531    -12.844 ad            1 LIG       -0.051351
      4 C3           25.297      0.090    -12.907 ae            1 LIG        0.105706
      5 C4           24.936     -0.272    -11.478 af            1 LIG       -0.035329
      6 C5           26.106     -0.434    -10.729 ah            1 LIG       -0.031740
      7 C6           26.041     -0.962     -9.436 ai            1 LIG       -0.014240
      8 C7           24.800     -1.224     -8.864 aj            1 LIG       -0.192485
      9 C8           23.629     -0.978     -9.569 ak            1 LIG       -0.208131
     10 C9           23.684     -0.513    -10.890 an            1 LIG        0.217526
     11 O2           22.562     -0.240    -11.644 ao            1 LIG       -0.303817
     12 C10          21.311     -0.586    -11.195 ap            1 LIG        0.273799
     13 C11          20.815     -1.861    -11.456 aq            1 LIG       -0.280022
     14 C12          19.554     -2.224    -11.003 av            1 LIG        0.228199
     15 F1           19.072     -3.451    -11.286 aw            1 LIG       -0.151991
     16 C13          18.789     -1.325    -10.264 ax            1 LIG       -0.274282
     17 C14          19.272     -0.042    -10.006 ay            1 LIG        0.168329
     18 Cl1          18.313      1.084     -9.114 az            1 LIG       -0.104969
     19 C15          20.531      0.327    -10.476 bb            1 LIG       -0.278854
     20 S1           27.514     -1.256     -8.465 bc            1 LIG        0.863487
     21 O3           27.193     -2.279     -7.464 bd            1 LIG       -0.519065
     22 O4           28.625     -1.483     -9.395 bf            1 LIG       -0.519065
     23 C16          27.739      0.423     -7.623 bg            1 LIG        0.274750
     24 F2           27.723      1.376     -8.558 bh            1 LIG       -0.182148
     25 F3           26.748      0.575     -6.750 bj            1 LIG       -0.182148
     26 C17          24.438      1.167    -13.539 bk            1 LIG       -0.286604
     27 H1           28.611      1.531    -11.363 bl            1 LIG        0.470629
     28 H2           28.028     -0.717    -11.668 bm            1 LIG        0.086177
     29 H3           26.824      1.621    -12.919 bn            1 LIG        0.040517
     30 H4           27.325      0.143    -13.686 bo            1 LIG        0.040517
     31 H5           25.226     -0.817    -13.511 bp            1 LIG        0.034440
     32 H6           24.739     -1.608     -7.863 bq            1 LIG        0.182547
     33 H7           22.683     -1.180     -9.087 bs            1 LIG        0.171730
     34 H8           21.416     -2.578    -11.995 bt            1 LIG        0.193193
     35 H9           17.828     -1.633     -9.896 bu            1 LIG        0.194051
     36 H10          20.903      1.314    -10.264 bv            1 LIG        0.178720
     37 H11          28.686      0.453     -7.084 bw            1 LIG        0.119262
     38 H12          23.485      0.766    -13.825 bx            1 LIG        0.084487
     39 H13          24.879      1.566    -14.444 by            1 LIG        0.084487
     40 H14          24.285      1.977    -12.831 bz            1 LIG        0.084487
@<TRIPOS>BOND
        1  1  2  1
        2  1  27  1
        3  2  3  1
        4  2  6  1
        5  2  28  1
        6  3  4  1
        7  3  29  1
        8  3  30  1
        9  4  5  1
        10  4  26  1
        11  4  31  1
        12  5  6  2
        13  5  10  1
        14  6  7  1
        15  7  8  2
        16  7  20  1
        17  8  9  1
        18  8  32  1
        19  9  10  2
        20  9  33  1
        21  10  11  1
        22  11  12  1
        23  12  13  2
        24  12  19  1
        25  13  14  1
        26  13  34  1
        27  14  15  1
        28  14  16  2
        29  16  17  1
        30  16  35  1
        31  17  18  1
        32  17  19  2
        33  19  36  1
        34  20  21  2
        35  20  22  2
        36  20  23  1
        37  23  24  1
        38  23  25  1
        39  23  37  1
        40  26  38  1
        41  26  39  1
        42  26  40  1
@<TRIPOS>SUBSTRUCTURE
       1 LIG             1 RESIDUE    0 **** ROOT      0
