@<TRIPOS>MOLECULE
LIG
51 55
SMALL
USER_CHARGES
@<TRIPOS>ATOM
      1 F1           10.668      0.326     -0.931 aa            1 LIG       -0.227571
      2 C1           11.909     -0.137     -0.743 ab            1 LIG        0.682249
      3 F2           12.557      0.697      0.071 ad            1 LIG       -0.227571
      4 F3           12.532     -0.156     -1.918 ae            1 LIG       -0.227571
      5 C2           11.855     -1.552     -0.187 af            1 LIG       -0.082913
      6 C3           10.804     -2.403     -0.532 ah            1 LIG       -0.181915
      7 C4           10.773     -3.710     -0.054 ai            1 LIG       -0.214489
      8 C5           11.814     -4.194      0.740 aj            1 LIG        0.237075
      9 C6           12.892     -3.356      1.095 ak            1 LIG       -0.021548
     10 C7           12.867     -2.026      0.654 an            1 LIG       -0.236083
     11 C8           14.049     -3.857      1.956 ao            1 LIG        0.272829
     12 O1           13.855     -3.417      3.271 ap            1 LIG       -0.489741
     13 C9           14.898     -3.760      4.193 aq            1 LIG        0.260742
     14 C10          14.658     -3.100      5.568 av            1 LIG       -0.031662
     15 N1           13.246     -2.923      5.912 aw            1 LIG        0.173749
     16 C11          12.620     -3.152      7.104 ax            1 LIG        0.048610
     17 N2           11.347     -2.864      7.001 ay            1 LIG       -0.486334
     18 C12          11.256     -2.445      5.747 az            1 LIG        0.209471
     19 N3           12.333     -2.435      5.040 bb            1 LIG       -0.441057
     20 C13          15.068     -5.310      4.244 bc            1 LIG       -0.065060
     21 C14          15.221     -5.917      2.832 bd            1 LIG       -0.053764
     22 C15          14.119     -5.420      1.869 bf            1 LIG        0.051113
     23 C16          12.721     -6.071      2.117 bg            1 LIG        0.126521
     24 C17          12.759     -7.595      2.035 bh            1 LIG        0.077514
     25 C18          12.323     -8.378      3.106 bj            1 LIG       -0.192780
     26 C19          12.405     -9.765      3.025 bk            1 LIG       -0.135695
     27 C20          12.905    -10.368      1.874 bl            1 LIG       -0.136482
     28 C21          13.326     -9.594      0.797 bm            1 LIG       -0.135695
     29 C22          13.252     -8.208      0.878 bn            1 LIG       -0.192780
     30 N4           11.733     -5.525      1.181 bo            1 LIG       -0.547003
     31 H1           10.021     -2.060     -1.196 bp            1 LIG        0.161351
     32 H2            9.949     -4.350     -0.331 bq            1 LIG        0.150852
     33 H3           13.682     -1.375      0.933 bs            1 LIG        0.164462
     34 H4           14.991     -3.467      1.517 bt            1 LIG        0.003084
     35 H5           15.841     -3.353      3.808 bu            1 LIG        0.001037
     36 H6           15.129     -3.693      6.358 bv            1 LIG        0.078869
     37 H7           15.124     -2.113      5.588 bw            1 LIG        0.078869
     38 H8           13.158     -3.508      7.981 bx            1 LIG        0.171323
     39 H9           10.299     -2.153      5.321 by            1 LIG        0.164813
     40 H10          15.942     -5.575      4.842 bz            1 LIG        0.033169
     41 H11          14.221     -5.751      4.760 cb            1 LIG        0.033169
     42 H12          16.188     -5.616      2.431 ci            1 LIG        0.024620
     43 H13          15.248     -7.005      2.900 cj            1 LIG        0.024620
     44 H14          14.431     -5.681      0.849 ck            1 LIG        0.001423
     45 H15          12.374     -5.807      3.118 cm            1 LIG        0.050093
     46 H16          11.931     -7.916      4.001 cn            1 LIG        0.142102
     47 H17          12.069    -10.376      3.853 ct            1 LIG        0.144034
     48 H18          12.961    -11.443      1.809 cw            1 LIG        0.143336
     49 H19          13.697    -10.059     -0.101 da            1 LIG        0.144034
     50 H20          13.561     -7.608      0.037 db            1 LIG        0.142102
     51 H21          10.898     -6.084      1.044 dc            1 LIG        0.330476
@<TRIPOS>BOND
        1  1  2  1
        2  2  3  1
        3  2  4  1
        4  2  5  1
        5  5  6  2
        6  5  10  1
        7  6  7  1
        8  6  31  1
        9  7  8  2
        10  7  32  1
        11  8  9  1
        12  8  30  1
        13  9  10  2
        14  9  11  1
        15  10  33  1
        16  11  12  1
        17  11  22  1
        18  11  34  1
        19  12  13  1
        20  13  14  1
        21  13  20  1
        22  13  35  1
        23  14  15  1
        24  14  36  1
        25  14  37  1
        26  15  16  1
        27  15  19  1
        28  16  17  2
        29  16  38  1
        30  17  18  1
        31  18  19  2
        32  18  39  1
        33  20  21  1
        34  20  40  1
        35  20  41  1
        36  21  22  1
        37  21  42  1
        38  21  43  1
        39  22  23  1
        40  22  44  1
        41  23  24  1
        42  23  30  1
        43  23  45  1
        44  24  25  2
        45  24  29  1
        46  25  26  1
        47  25  46  1
        48  26  27  2
        49  26  47  1
        50  27  28  1
        51  27  48  1
        52  28  29  2
        53  28  49  1
        54  29  50  1
        55  30  51  1
@<TRIPOS>SUBSTRUCTURE
       1 LIG             1 RESIDUE    0 **** ROOT      0
