@<TRIPOS>MOLECULE
LIG
42 45
SMALL
USER_CHARGES
@<TRIPOS>ATOM
      1 C1           25.543     34.017     52.010 aa            1 LIG       -0.224245
      2 C2           24.453     33.695     52.999 ab            1 LIG        0.393001
      3 N1           23.228     33.439     52.601 ad            1 LIG       -0.330564
      4 O1           22.565     33.168     53.795 ae            1 LIG       -0.084477
      5 C3           23.507     33.311     54.762 af            1 LIG        0.355980
      6 N2           24.679     33.656     54.295 ah            1 LIG       -0.522704
      7 C4           23.148     32.971     56.172 ai            1 LIG        0.101954
      8 C5           24.134     32.972     57.166 aj            1 LIG       -0.185181
      9 C6           23.830     32.572     58.464 ak            1 LIG       -0.132882
     10 C7           22.534     32.163     58.776 an            1 LIG       -0.188968
     11 C8           21.536     32.152     57.801 ao            1 LIG        0.092958
     12 C9           20.119     31.703     58.154 ap            1 LIG        0.027882
     13 N3           19.855     30.289     57.827 aq            1 LIG        0.045331
     14 N4           19.394     30.036     56.526 av            1 LIG       -0.389536
     15 C10          19.144     28.836     56.104 aw            1 LIG        0.213295
     16 C11          19.379     27.754     57.044 ax            1 LIG       -0.097524
     17 C12          19.852     27.987     58.289 ay            1 LIG       -0.191268
     18 C13          20.132     29.324     58.777 az            1 LIG        0.588209
     19 O2           20.558     29.529     59.918 bb            1 LIG       -0.640045
     20 C14          18.647     28.543     54.742 bc            1 LIG        0.117917
     21 C15          18.999     29.382     53.674 bd            1 LIG       -0.265885
     22 C16          18.568     29.104     52.378 bf            1 LIG        0.224965
     23 F1           18.921     29.923     51.358 bg            1 LIG       -0.159666
     24 C17          17.774     27.988     52.129 bh            1 LIG       -0.274724
     25 C18          17.416     27.143     53.178 bj            1 LIG        0.224965
     26 F2           16.653     26.057     52.940 bk            1 LIG       -0.159666
     27 C19          17.850     27.418     54.473 bl            1 LIG       -0.265885
     28 C20          21.844     32.579     56.505 bm            1 LIG       -0.242517
     29 H1           25.305     34.912     51.437 bn            1 LIG        0.102244
     30 H2           25.669     33.211     51.286 bo            1 LIG        0.102244
     31 H3           26.513     34.178     52.482 bp            1 LIG        0.102244
     32 H4           25.148     33.270     56.938 bq            1 LIG        0.160832
     33 H5           24.598     32.570     59.224 bs            1 LIG        0.154774
     34 H6           22.312     31.848     59.787 bt            1 LIG        0.152545
     35 H7           19.923     31.920     59.208 bu            1 LIG        0.085405
     36 H8           19.399     32.330     57.621 bv            1 LIG        0.085405
     37 H9           19.215     26.726     56.760 bw            1 LIG        0.121464
     38 H10          20.035     27.156     58.951 bx            1 LIG        0.142882
     39 H11          19.621     30.254     53.827 by            1 LIG        0.185079
     40 H12          17.448     27.773     51.125 bz            1 LIG        0.190915
     41 H13          17.562     26.730     55.256 cb            1 LIG        0.185079
     42 H14          21.073     32.563     55.748 ci            1 LIG        0.198173
@<TRIPOS>BOND
        1  1  2  1
        2  1  29  1
        3  1  30  1
        4  1  31  1
        5  2  3  2
        6  2  6  1
        7  3  4  1
        8  4  5  1
        9  5  6  2
        10  5  7  1
        11  7  8  2
        12  7  28  1
        13  8  9  1
        14  8  32  1
        15  9  10  2
        16  9  33  1
        17  10  11  1
        18  10  34  1
        19  11  12  1
        20  11  28  2
        21  12  13  1
        22  12  35  1
        23  12  36  1
        24  13  14  1
        25  13  18  1
        26  14  15  2
        27  15  16  1
        28  15  20  1
        29  16  17  2
        30  16  37  1
        31  17  18  1
        32  17  38  1
        33  18  19  2
        34  20  21  2
        35  20  27  1
        36  21  22  1
        37  21  39  1
        38  22  23  1
        39  22  24  2
        40  24  25  1
        41  24  40  1
        42  25  26  1
        43  25  27  2
        44  27  41  1
        45  28  42  1
@<TRIPOS>SUBSTRUCTURE
       1 LIG             1 RESIDUE    0 **** ROOT      0
