@<TRIPOS>MOLECULE
LIG
53 57
SMALL
USER_CHARGES
@<TRIPOS>ATOM
      1 C1           93.311     49.813    267.641 aa            1 LIG       -0.000643
      2 C2           92.567     47.346    266.470 ab            1 LIG       -0.305689
      3 C3           91.614     48.339    266.676 ad            1 LIG        0.280806
      4 C4           91.983     49.540    267.276 ae            1 LIG       -0.246597
      5 C5           93.896     47.540    266.903 af            1 LIG        0.295781
      6 C6           94.281     48.782    267.495 ah            1 LIG        0.246131
      7 N1           95.566     48.963    267.927 ai            1 LIG       -0.479960
      8 C7           96.450     47.954    267.740 aj            1 LIG        0.165588
      9 C8           96.062     46.744    267.178 ak            1 LIG        0.171989
     10 N2           94.795     46.530    266.754 an            1 LIG       -0.489237
     11 N3           90.275     48.131    266.320 ao            1 LIG       -0.561662
     12 C9           89.717     47.351    265.291 ap            1 LIG        0.149747
     13 C10          90.421     47.127    264.100 aq            1 LIG        0.177121
     14 N4           89.919     46.435    263.047 av            1 LIG       -0.470090
     15 C11          88.663     45.940    263.165 aw            1 LIG        0.238331
     16 C12          87.888     46.097    264.313 ax            1 LIG       -0.273003
     17 C13          88.425     46.805    265.398 ay            1 LIG       -0.025618
     18 S1           87.481     46.891    266.925 az            1 LIG        0.918577
     19 O1           86.140     46.367    266.668 bb            1 LIG       -0.548041
     20 O2           87.649     48.242    267.479 bc            1 LIG       -0.548041
     21 C14          88.384     45.676    268.046 bd            1 LIG       -0.370247
     22 C15          93.650     51.119    268.259 bf            1 LIG        0.067375
     23 C16          94.621     51.974    267.751 bg            1 LIG       -0.176452
     24 C17          94.896     53.202    268.356 bh            1 LIG       -0.194160
     25 C18          92.959     51.452    269.404 bj            1 LIG       -0.239053
     26 C19          93.223     52.664    270.047 bk            1 LIG        0.064924
     27 C20          94.174     53.576    269.505 bl            1 LIG        0.070213
     28 C21          94.162     54.729    270.349 bm            1 LIG       -0.220270
     29 C22          93.272     54.475    271.366 bn            1 LIG       -0.136477
     30 N5           92.707     53.229    271.215 bo            1 LIG       -0.013615
     31 C23          91.810     52.616    272.212 bp            1 LIG        0.070984
     32 C24          90.789     51.651    271.618 bq            1 LIG       -0.271095
     33 H1           92.287     46.401    266.028 bs            1 LIG        0.165135
     34 H2           91.221     50.290    267.448 bt            1 LIG        0.154672
     35 H3           97.468     48.141    268.044 bu            1 LIG        0.057207
     36 H4           96.770     45.945    267.018 bv            1 LIG        0.058268
     37 H5           89.585     48.623    266.878 bw            1 LIG        0.379036
     38 H6           91.423     47.504    263.973 bx            1 LIG        0.088148
     39 H7           88.278     45.384    262.323 by            1 LIG        0.076249
     40 H8           86.901     45.656    264.364 bz            1 LIG        0.169483
     41 H9           87.870     45.635    269.006 cb            1 LIG        0.148020
     42 H10          89.411     46.013    268.180 ci            1 LIG        0.148020
     43 H11          88.366     44.693    267.580 cj            1 LIG        0.148020
     44 H12          95.140     51.670    266.856 ck            1 LIG        0.154279
     45 H13          95.643     53.854    267.925 cm            1 LIG        0.141192
     46 H14          92.234     50.724    269.701 cn            1 LIG        0.131575
     47 H15          94.772     55.615    270.246 ct            1 LIG        0.142211
     48 H16          93.002     55.095    272.213 cw            1 LIG        0.146726
     49 H17          91.270     53.400    272.743 da            1 LIG        0.050538
     50 H18          92.411     52.072    272.938 db            1 LIG        0.050538
     51 H19          90.134     51.169    272.321 dc            1 LIG        0.081021
     52 H20          91.262     50.727    271.330 dd            1 LIG        0.081021
     53 H21          90.210     52.077    270.792 de            1 LIG        0.081021
@<TRIPOS>BOND
        1  1  4  2
        2  1  6  1
        3  1  22  1
        4  2  3  2
        5  2  5  1
        6  2  33  1
        7  3  4  1
        8  3  11  1
        9  4  34  1
        10  5  6  2
        11  5  10  1
        12  6  7  1
        13  7  8  2
        14  8  9  1
        15  8  35  1
        16  9  10  2
        17  9  36  1
        18  11  12  1
        19  11  37  1
        20  12  13  2
        21  12  17  1
        22  13  14  1
        23  13  38  1
        24  14  15  2
        25  15  16  1
        26  15  39  1
        27  16  17  2
        28  16  40  1
        29  17  18  1
        30  18  19  2
        31  18  20  2
        32  18  21  1
        33  21  41  1
        34  21  42  1
        35  21  43  1
        36  22  23  2
        37  22  25  1
        38  23  24  1
        39  23  44  1
        40  24  27  2
        41  24  45  1
        42  25  26  2
        43  25  46  1
        44  26  27  1
        45  26  30  1
        46  27  28  1
        47  28  29  2
        48  28  47  1
        49  29  30  1
        50  29  48  1
        51  30  31  1
        52  31  32  1
        53  31  49  1
        54  31  50  1
        55  32  51  1
        56  32  52  1
        57  32  53  1
@<TRIPOS>SUBSTRUCTURE
       1 LIG             1 RESIDUE    0 **** ROOT      0
