@<TRIPOS>MOLECULE
LIG
37 39
SMALL
USER_CHARGES
@<TRIPOS>ATOM
      1 O1           27.589      1.554    -11.251 aa            1 LIG       -0.682046
      2 C1           27.150      0.283    -11.671 ab            1 LIG        0.198555
      3 C2           26.511      0.368    -13.059 ad            1 LIG        0.288552
      4 C3           25.027      0.612    -12.831 ae            1 LIG       -0.019572
      5 C4           24.800     -0.057    -11.493 af            1 LIG       -0.041150
      6 C5           26.009     -0.231    -10.809 ah            1 LIG       -0.034075
      7 C6           26.011     -0.779     -9.516 ai            1 LIG       -0.020178
      8 C7           24.794     -1.087     -8.904 aj            1 LIG       -0.195228
      9 C8           23.597     -0.936     -9.598 ak            1 LIG       -0.211089
     10 C9           23.594     -0.436    -10.907 an            1 LIG        0.227471
     11 O2           22.469     -0.292    -11.684 ao            1 LIG       -0.257827
     12 C10          21.328     -0.988    -11.396 ap            1 LIG        0.061526
     13 S1           27.523     -1.076     -8.600 aq            1 LIG        0.804763
     14 O3           27.226     -2.025     -7.521 av            1 LIG       -0.499612
     15 O4           28.574     -1.418     -9.557 aw            1 LIG       -0.499612
     16 C11          27.921      0.606     -7.835 ax            1 LIG        0.608868
     17 F1           26.636     -0.810    -13.672 ay            1 LIG       -0.200129
     18 F2           27.063      1.302    -13.834 az            1 LIG       -0.200129
     19 F3           29.187      0.559     -7.497 bb            1 LIG       -0.185572
     20 F4           27.752      1.571     -8.702 bc            1 LIG       -0.185572
     21 F5           27.127      0.800     -6.787 bd            1 LIG       -0.185572
     22 C12          21.079     -2.361    -11.512 bf            1 LIG        0.002084
     23 N1           19.843     -2.675    -11.189 bg            1 LIG       -0.417454
     24 N2           19.286     -1.515    -10.835 bh            1 LIG        0.237380
     25 C13          20.140     -0.452    -10.969 bj            1 LIG       -0.173619
     26 C14          17.909     -1.498    -10.398 bk            1 LIG       -0.211337
     27 H1           28.364      1.836    -11.769 bl            1 LIG        0.496124
     28 H2           27.976     -0.426    -11.696 bm            1 LIG        0.106849
     29 H3           24.809      1.684    -12.784 bn            1 LIG        0.074015
     30 H4           24.413      0.181    -13.615 bo            1 LIG        0.074015
     31 H5           24.777     -1.463     -7.891 bp            1 LIG        0.177509
     32 H6           22.675     -1.234     -9.126 bq            1 LIG        0.175254
     33 H7           21.772     -3.116    -11.859 bs            1 LIG        0.164622
     34 H8           19.842      0.559    -10.747 bt            1 LIG        0.173597
     35 H9           17.262     -1.874    -11.191 bu            1 LIG        0.116196
     36 H10          17.628     -0.474    -10.158 bv            1 LIG        0.116196
     37 H11          17.796     -2.117     -9.508 bw            1 LIG        0.116196
@<TRIPOS>BOND
        1  1  2  1
        2  1  27  1
        3  2  3  1
        4  2  6  1
        5  2  28  1
        6  3  4  1
        7  3  17  1
        8  3  18  1
        9  4  5  1
        10  4  29  1
        11  4  30  1
        12  5  6  2
        13  5  10  1
        14  6  7  1
        15  7  8  2
        16  7  13  1
        17  8  9  1
        18  8  31  1
        19  9  10  2
        20  9  32  1
        21  10  11  1
        22  11  12  1
        23  12  22  1
        24  12  25  2
        25  13  14  2
        26  13  15  2
        27  13  16  1
        28  16  19  1
        29  16  20  1
        30  16  21  1
        31  22  23  2
        32  22  33  1
        33  23  24  1
        34  24  25  1
        35  24  26  1
        36  25  34  1
        37  26  35  1
        38  26  36  1
        39  26  37  1
@<TRIPOS>SUBSTRUCTURE
       1 LIG             1 RESIDUE    0 **** ROOT      0
