@<TRIPOS>MOLECULE
LIG
50 54
SMALL
USER_CHARGES
@<TRIPOS>ATOM
      1 C1           -4.255     -3.107     13.567 aa            1 LIG        0.065235
      2 O1           -3.874     -2.356     14.710 ab            1 LIG       -0.353571
      3 C2           -2.527     -2.107     14.813 ad            1 LIG        0.191351
      4 C3           -1.752     -2.872     15.675 ae            1 LIG       -0.222080
      5 C4           -0.393     -2.615     15.812 af            1 LIG       -0.223301
      6 C5            0.220     -1.588     15.090 ah            1 LIG        0.272411
      7 N1            1.604     -1.367     15.330 ai            1 LIG       -0.566138
      8 C6            2.525     -0.434     14.783 aj            1 LIG        0.446581
      9 N2            2.152      0.404     13.769 ak            1 LIG       -0.554732
     10 C7            3.098      1.239     13.233 an            1 LIG        0.211846
     11 C8            4.400      1.276     13.701 ao            1 LIG       -0.118031
     12 N3            4.737      0.493     14.760 ap            1 LIG        0.065638
     13 C9            5.893      0.391     15.481 aq            1 LIG       -0.163243
     14 C10           5.603     -0.548     16.505 av            1 LIG        0.031391
     15 N4            4.388     -1.060     16.354 aw            1 LIG       -0.513554
     16 C11           3.833     -0.388     15.331 ax            1 LIG        0.172405
     17 C12           2.641      2.140     12.127 ay            1 LIG        0.108803
     18 C13           3.558      2.640     11.167 az            1 LIG       -0.194284
     19 C14           3.112      3.465     10.122 bb            1 LIG       -0.210842
     20 C15           1.763      3.804     10.040 bc            1 LIG        0.129547
     21 N5            1.298      4.612      9.007 bd            1 LIG       -0.481926
     22 C16          -0.006      4.851      8.718 bf            1 LIG        0.627010
     23 O2           -0.412      5.631      7.855 bg            1 LIG       -0.601719
     24 C17          -0.927      3.967      9.625 bh            1 LIG        0.176076
     25 O3           -0.439      3.702     10.958 bj            1 LIG       -0.390441
     26 C18           0.881      3.337     10.999 bk            1 LIG        0.205260
     27 C19           1.296      2.513     12.028 bl            1 LIG       -0.265522
     28 C20          -0.555     -0.814     14.194 bm            1 LIG       -0.300426
     29 C21          -1.941     -1.077     14.065 bn            1 LIG        0.201860
     30 O4           -2.743     -0.321     13.226 bo            1 LIG       -0.348635
     31 C22          -2.199      0.370     12.114 bp            1 LIG        0.060412
     32 H1           -5.336     -3.251     13.581 bq            1 LIG        0.055233
     33 H2           -3.786     -4.092     13.558 bs            1 LIG        0.055233
     34 H3           -4.002     -2.590     12.640 bt            1 LIG        0.055233
     35 H4           -2.209     -3.662     16.253 bu            1 LIG        0.155501
     36 H5            0.195     -3.208     16.499 bv            1 LIG        0.144920
     37 H6            2.000     -1.967     16.042 bw            1 LIG        0.364501
     38 H7            5.160      1.940     13.316 bx            1 LIG        0.124459
     39 H8            6.770      0.989     15.274 by            1 LIG        0.150875
     40 H9            6.252     -0.847     17.311 bz            1 LIG        0.150302
     41 H10           4.602      2.368     11.221 cb            1 LIG        0.169297
     42 H11           3.812      3.828      9.379 ci            1 LIG        0.155234
     43 H12           1.966      5.055      8.396 cj            1 LIG        0.322877
     44 H13          -1.026      3.001      9.121 ck            1 LIG        0.052449
     45 H14          -1.905      4.436      9.636 cm            1 LIG        0.052449
     46 H15           0.582      2.174     12.762 cn            1 LIG        0.165185
     47 H16          -0.114     -0.019     13.628 ct            1 LIG        0.196540
     48 H17          -3.026      0.826     11.565 cw            1 LIG        0.057443
     49 H18          -1.697     -0.317     11.434 da            1 LIG        0.057443
     50 H19          -1.523      1.166     12.413 db            1 LIG        0.057443
@<TRIPOS>BOND
        1  1  2  1
        2  1  32  1
        3  1  33  1
        4  1  34  1
        5  2  3  1
        6  3  4  2
        7  3  29  1
        8  4  5  1
        9  4  35  1
        10  5  6  2
        11  5  36  1
        12  6  7  1
        13  6  28  1
        14  7  8  1
        15  7  37  1
        16  8  9  2
        17  8  16  1
        18  9  10  1
        19  10  11  2
        20  10  17  1
        21  11  12  1
        22  11  38  1
        23  12  13  1
        24  12  16  1
        25  13  14  2
        26  13  39  1
        27  14  15  1
        28  14  40  1
        29  15  16  2
        30  17  18  2
        31  17  27  1
        32  18  19  1
        33  18  41  1
        34  19  20  2
        35  19  42  1
        36  20  21  1
        37  20  26  1
        38  21  22  1
        39  21  43  1
        40  22  23  2
        41  22  24  1
        42  24  25  1
        43  24  44  1
        44  24  45  1
        45  25  26  1
        46  26  27  2
        47  27  46  1
        48  28  29  2
        49  28  47  1
        50  29  30  1
        51  30  31  1
        52  31  48  1
        53  31  49  1
        54  31  50  1
@<TRIPOS>SUBSTRUCTURE
       1 LIG             1 RESIDUE    0 **** ROOT      0
