@<TRIPOS>MOLECULE
LIG
52 55
SMALL
USER_CHARGES
@<TRIPOS>ATOM
      1 C1           12.815      0.808      0.069 aa            1 LIG       -0.351453
      2 C2           11.919     -0.147     -0.754 ab            1 LIG        0.591329
      3 C3           10.469      0.366     -0.778 ad            1 LIG       -0.351453
      4 C4           12.475     -0.221     -2.178 ae            1 LIG       -0.351453
      5 C5           11.889     -1.579     -0.185 af            1 LIG       -0.047561
      6 C6           10.852     -2.454     -0.547 ah            1 LIG       -0.195408
      7 C7           10.795     -3.744     -0.055 ai            1 LIG       -0.221069
      8 C8           11.812     -4.204      0.764 aj            1 LIG        0.217366
      9 C9           12.881     -3.369      1.133 ak            1 LIG       -0.036620
     10 C10          12.882     -2.055      0.676 an            1 LIG       -0.251628
     11 C11          14.029     -3.874      1.986 ao            1 LIG        0.266523
     12 O1           13.808     -3.449      3.333 ap            1 LIG       -0.486249
     13 C12          14.876     -3.789      4.216 aq            1 LIG        0.226746
     14 C13          15.072     -5.318      4.257 av            1 LIG       -0.061603
     15 C14          15.231     -5.901      2.844 aw            1 LIG       -0.050816
     16 C15          14.118     -5.408      1.890 ax            1 LIG        0.052879
     17 C16          12.719     -6.049      2.127 ay            1 LIG        0.126798
     18 C17          12.761     -7.548      2.035 az            1 LIG        0.071153
     19 C18          13.245     -8.189      0.885 bb            1 LIG       -0.200355
     20 C19          13.321     -9.578      0.830 bc            1 LIG       -0.226320
     21 C20          12.927    -10.312      1.948 bd            1 LIG        0.225725
     22 O2           12.976    -11.665      2.091 bf            1 LIG       -0.602046
     23 C21          12.430     -9.669      3.044 bg            1 LIG        0.150434
     24 F1           12.058    -10.444      4.069 bh            1 LIG       -0.158656
     25 C22          12.323     -8.302      3.121 bj            1 LIG       -0.263594
     26 N1           11.743     -5.536      1.178 bk            1 LIG       -0.577386
     27 H1           12.533      0.883      1.115 bl            1 LIG        0.068694
     28 H2           12.868      1.817     -0.339 bm            1 LIG        0.068694
     29 H3           13.814      0.411      0.094 bn            1 LIG        0.068694
     30 H4           10.131      0.329      0.228 bo            1 LIG        0.068694
     31 H5            9.785     -0.199     -1.398 bp            1 LIG        0.068694
     32 H6           10.294      1.365     -1.133 bq            1 LIG        0.068694
     33 H7           13.473     -0.659     -2.225 bs            1 LIG        0.068694
     34 H8           12.525      0.733     -2.695 bt            1 LIG        0.068694
     35 H9           11.789     -0.862     -2.705 bu            1 LIG        0.068694
     36 H10          10.058     -2.164     -1.212 bv            1 LIG        0.136072
     37 H11           9.964     -4.377     -0.329 bw            1 LIG        0.128592
     38 H12          13.711     -1.440      0.985 bx            1 LIG        0.161199
     39 H13          14.957     -3.440      1.608 by            1 LIG        0.018637
     40 H14          15.798     -3.316      3.873 bz            1 LIG        0.014399
     41 H15          14.665     -3.399      5.212 cb            1 LIG        0.014399
     42 H16          15.945     -5.569      4.858 ci            1 LIG        0.023372
     43 H17          14.213     -5.778      4.748 cj            1 LIG        0.023372
     44 H18          16.200     -5.607      2.433 ck            1 LIG        0.018650
     45 H19          15.255     -6.989      2.896 cm            1 LIG        0.018650
     46 H20          14.436     -5.629      0.871 cn            1 LIG        0.002952
     47 H21          12.363     -5.783      3.126 ct            1 LIG        0.038992
     48 H22          13.563     -7.587      0.042 cw            1 LIG        0.154937
     49 H23          13.694    -10.045     -0.071 da            1 LIG        0.152999
     50 H24          13.162    -12.203      1.310 db            1 LIG        0.482054
     51 H25          11.931     -7.848      4.017 dc            1 LIG        0.175184
     52 H26          10.887     -6.069      1.105 dd            1 LIG        0.322016
@<TRIPOS>BOND
        1  1  2  1
        2  1  27  1
        3  1  28  1
        4  1  29  1
        5  2  3  1
        6  2  4  1
        7  2  5  1
        8  3  30  1
        9  3  31  1
        10  3  32  1
        11  4  33  1
        12  4  34  1
        13  4  35  1
        14  5  6  2
        15  5  10  1
        16  6  7  1
        17  6  36  1
        18  7  8  2
        19  7  37  1
        20  8  9  1
        21  8  26  1
        22  9  10  2
        23  9  11  1
        24  10  38  1
        25  11  12  1
        26  11  16  1
        27  11  39  1
        28  12  13  1
        29  13  14  1
        30  13  40  1
        31  13  41  1
        32  14  15  1
        33  14  42  1
        34  14  43  1
        35  15  16  1
        36  15  44  1
        37  15  45  1
        38  16  17  1
        39  16  46  1
        40  17  18  1
        41  17  26  1
        42  17  47  1
        43  18  19  2
        44  18  25  1
        45  19  20  1
        46  19  48  1
        47  20  21  2
        48  20  49  1
        49  21  22  1
        50  21  23  1
        51  22  50  1
        52  23  24  1
        53  23  25  2
        54  25  51  1
        55  26  52  1
@<TRIPOS>SUBSTRUCTURE
       1 LIG             1 RESIDUE    0 **** ROOT      0
