@<TRIPOS>MOLECULE
LIG
38 40
SMALL
USER_CHARGES
@<TRIPOS>ATOM
      1 O1           27.579      1.560    -11.155 aa            1 LIG       -0.688691
      2 C1           27.151      0.309    -11.660 ab            1 LIG        0.206936
      3 C2           26.521      0.375    -13.058 ad            1 LIG        0.288438
      4 C3           25.034      0.586    -12.846 ae            1 LIG       -0.011249
      5 C4           24.806     -0.085    -11.504 af            1 LIG       -0.039589
      6 C5           26.016     -0.250    -10.817 ah            1 LIG       -0.026330
      7 C6           26.020     -0.787     -9.518 ai            1 LIG       -0.005944
      8 C7           24.802     -1.098     -8.908 aj            1 LIG       -0.185587
      9 C8           23.605     -0.929     -9.588 ak            1 LIG       -0.198652
     10 C9           23.601     -0.435    -10.899 an            1 LIG        0.216004
     11 O2           22.480     -0.266    -11.677 ao            1 LIG       -0.314480
     12 C10          21.245     -0.569    -11.180 ap            1 LIG        0.276250
     13 C11          20.678     -1.825    -11.398 aq            1 LIG       -0.270663
     14 C12          19.422     -2.109    -10.876 av            1 LIG        0.228312
     15 F1           18.854     -3.317    -11.082 aw            1 LIG       -0.155154
     16 C13          18.736     -1.152    -10.139 ax            1 LIG       -0.256647
     17 C14          19.288      0.123     -9.955 ay            1 LIG        0.190101
     18 C15          18.570      1.167     -9.240 az            1 LIG        0.220309
     19 C16          20.548      0.390    -10.451 bb            1 LIG       -0.264715
     20 S1           27.520     -1.066     -8.579 bc            1 LIG        0.926710
     21 O3           27.211     -1.978     -7.478 bd            1 LIG       -0.534863
     22 O4           28.600     -1.405     -9.508 bf            1 LIG       -0.534863
     23 C17          27.906      0.612     -7.864 bg            1 LIG       -0.372563
     24 F2           27.059      1.322    -13.829 bh            1 LIG       -0.203449
     25 F3           26.674     -0.800    -13.663 bj            1 LIG       -0.203449
     26 N1           18.020      2.005     -8.663 bk            1 LIG       -0.364878
     27 H1           28.340      1.877    -11.653 bl            1 LIG        0.500515
     28 H2           27.997     -0.381    -11.703 bm            1 LIG        0.081925
     29 H3           24.430      0.181    -13.665 bn            1 LIG        0.065441
     30 H4           24.795      1.642    -12.768 bo            1 LIG        0.065441
     31 H5           24.781     -1.491     -7.902 bp            1 LIG        0.186695
     32 H6           22.685     -1.220     -9.098 bq            1 LIG        0.189720
     33 H7           21.218     -2.583    -11.944 bs            1 LIG        0.192213
     34 H8           17.796     -1.436     -9.704 bt            1 LIG        0.182500
     35 H9           21.008      1.352    -10.263 bu            1 LIG        0.164594
     36 H10          28.921      0.544     -7.482 bv            1 LIG        0.149888
     37 H11          27.193      0.840     -7.071 bw            1 LIG        0.149888
     38 H12          27.872      1.367     -8.646 bx            1 LIG        0.149888
@<TRIPOS>BOND
        1  1  2  1
        2  1  27  1
        3  2  3  1
        4  2  6  1
        5  2  28  1
        6  3  4  1
        7  3  24  1
        8  3  25  1
        9  4  5  1
        10  4  29  1
        11  4  30  1
        12  5  6  2
        13  5  10  1
        14  6  7  1
        15  7  8  2
        16  7  20  1
        17  8  9  1
        18  8  31  1
        19  9  10  2
        20  9  32  1
        21  10  11  1
        22  11  12  1
        23  12  13  2
        24  12  19  1
        25  13  14  1
        26  13  33  1
        27  14  15  1
        28  14  16  2
        29  16  17  1
        30  16  34  1
        31  17  18  1
        32  17  19  2
        33  18  26  3
        34  19  35  1
        35  20  21  2
        36  20  22  2
        37  20  23  1
        38  23  36  1
        39  23  37  1
        40  23  38  1
@<TRIPOS>SUBSTRUCTURE
       1 LIG             1 RESIDUE    0 **** ROOT      0
