@<TRIPOS>MOLECULE
LIG
51 54
SMALL
USER_CHARGES
@<TRIPOS>ATOM
      1 C1           -4.255     -3.106     13.566 aa            1 LIG        0.065263
      2 O1           -3.874     -2.353     14.707 ab            1 LIG       -0.353149
      3 C2           -2.528     -2.106     14.813 ad            1 LIG        0.191190
      4 C3           -1.753     -2.866     15.684 ae            1 LIG       -0.222231
      5 C4           -0.397     -2.607     15.823 af            1 LIG       -0.223342
      6 C5            0.219     -1.585     15.096 ah            1 LIG        0.272651
      7 N1            1.603     -1.362     15.332 ai            1 LIG       -0.566972
      8 C6            2.531     -0.439     14.783 aj            1 LIG        0.446261
      9 N2            2.168      0.385     13.753 ak            1 LIG       -0.556319
     10 C7            3.108      1.229     13.232 an            1 LIG        0.210651
     11 C8            4.411      1.278     13.706 ao            1 LIG       -0.117075
     12 N3            4.745      0.485     14.766 ap            1 LIG        0.064139
     13 C9            5.894      0.382     15.482 aq            1 LIG       -0.163557
     14 C10           5.591     -0.533     16.515 av            1 LIG        0.031268
     15 N4            4.384     -1.060     16.357 aw            1 LIG       -0.515693
     16 C11           3.836     -0.391     15.332 ax            1 LIG        0.172661
     17 C12           2.649      2.136     12.129 ay            1 LIG        0.111949
     18 C13           3.558      2.634     11.178 az            1 LIG       -0.191231
     19 C14           3.127      3.458     10.147 bb            1 LIG       -0.192636
     20 C15           1.772      3.812     10.035 bc            1 LIG       -0.047932
     21 C16           1.334      4.694      8.885 bd            1 LIG        0.755513
     22 O2            2.099      5.519      8.395 bf            1 LIG       -0.624190
     23 N5            0.098      4.481      8.426 bg            1 LIG       -0.924310
     24 C17           0.852      3.338     11.012 bh            1 LIG        0.111495
     25 C18          -0.622      3.752     10.989 bj            1 LIG       -0.249860
     26 C19           1.299      2.510     12.036 bk            1 LIG       -0.254340
     27 C20          -0.551     -0.816     14.196 bl            1 LIG       -0.298275
     28 C21          -1.942     -1.084     14.061 bm            1 LIG        0.201491
     29 O3           -2.745     -0.341     13.207 bn            1 LIG       -0.350026
     30 C22          -2.192      0.447     12.170 bo            1 LIG        0.061875
     31 H1           -5.336     -3.250     13.581 bp            1 LIG        0.055172
     32 H2           -3.789     -4.092     13.560 bq            1 LIG        0.055172
     33 H3           -4.003     -2.589     12.640 bs            1 LIG        0.055172
     34 H4           -2.203     -3.656     16.261 bt            1 LIG        0.155306
     35 H5            0.187     -3.202     16.511 bu            1 LIG        0.145059
     36 H6            1.991     -1.945     16.056 bv            1 LIG        0.364577
     37 H7            5.169      1.947     13.325 bw            1 LIG        0.123453
     38 H8            6.773      0.974     15.279 bx            1 LIG        0.149881
     39 H9            6.239     -0.816     17.325 by            1 LIG        0.149183
     40 H10           4.596      2.358     11.229 bz            1 LIG        0.159510
     41 H11           3.841      3.810      9.415 cb            1 LIG        0.144425
     42 H12          -0.254      5.011      7.646 ci            1 LIG        0.406493
     43 H13          -0.483      3.772      8.846 cj            1 LIG        0.406493
     44 H14          -1.105      3.565     11.942 ck            1 LIG        0.092028
     45 H15          -1.170      3.213     10.217 cm            1 LIG        0.092028
     46 H16          -0.726      4.829     10.820 cn            1 LIG        0.092028
     47 H17           0.600      2.168     12.778 ct            1 LIG        0.144569
     48 H18          -0.104     -0.028     13.633 cw            1 LIG        0.194553
     49 H19          -3.015      0.903     11.616 da            1 LIG        0.056544
     50 H20          -1.624     -0.160     11.465 db            1 LIG        0.056544
     51 H21          -1.575      1.251     12.558 dc            1 LIG        0.056544
@<TRIPOS>BOND
        1  1  2  1
        2  1  31  1
        3  1  32  1
        4  1  33  1
        5  2  3  1
        6  3  4  2
        7  3  28  1
        8  4  5  1
        9  4  34  1
        10  5  6  2
        11  5  35  1
        12  6  7  1
        13  6  27  1
        14  7  8  1
        15  7  36  1
        16  8  9  2
        17  8  16  1
        18  9  10  1
        19  10  11  2
        20  10  17  1
        21  11  12  1
        22  11  37  1
        23  12  13  1
        24  12  16  1
        25  13  14  2
        26  13  38  1
        27  14  15  1
        28  14  39  1
        29  15  16  2
        30  17  18  2
        31  17  26  1
        32  18  19  1
        33  18  40  1
        34  19  20  2
        35  19  41  1
        36  20  21  1
        37  20  24  1
        38  21  22  2
        39  21  23  1
        40  23  42  1
        41  23  43  1
        42  24  25  1
        43  24  26  2
        44  25  44  1
        45  25  45  1
        46  25  46  1
        47  26  47  1
        48  27  28  2
        49  27  48  1
        50  28  29  1
        51  29  30  1
        52  30  49  1
        53  30  50  1
        54  30  51  1
@<TRIPOS>SUBSTRUCTURE
       1 LIG             1 RESIDUE    0 **** ROOT      0
