@<TRIPOS>MOLECULE
LIG
57 60
SMALL
USER_CHARGES
@<TRIPOS>ATOM
      1 C1           15.290     -4.644      7.535 aa            1 LIG       -0.240962
      2 N1           14.241     -3.968      6.669 ab            1 LIG       -0.124258
      3 C2           14.721     -3.057      5.542 ad            1 LIG        0.273199
      4 C3           14.898     -3.785      4.190 ae            1 LIG        0.249245
      5 C4           15.073     -5.326      4.239 af            1 LIG       -0.073020
      6 C5           15.213     -5.910      2.826 ah            1 LIG       -0.057818
      7 C6           14.096     -5.410      1.883 ai            1 LIG        0.049510
      8 C7           12.702     -6.064      2.137 aj            1 LIG        0.117086
      9 C8           12.707     -7.584      2.091 ak            1 LIG        0.042645
     10 C9           12.259     -8.476      3.063 an            1 LIG       -0.204457
     11 C10          12.475     -9.824      2.765 ao            1 LIG       -0.158582
     12 C11          13.025    -10.008      1.513 ap            1 LIG       -0.141182
     13 S1           13.333     -8.492      0.736 aq            1 LIG       -0.033273
     14 N2           11.699     -5.516      1.222 av            1 LIG       -0.568135
     15 C12          11.787     -4.186      0.780 aw            1 LIG        0.221735
     16 C13          10.774     -3.718     -0.053 ax            1 LIG       -0.216778
     17 C14          10.822     -2.425     -0.551 ay            1 LIG       -0.189919
     18 C15          11.867     -1.563     -0.197 az            1 LIG       -0.047433
     19 C16          11.920     -0.129     -0.753 bb            1 LIG        0.590089
     20 C17          10.488      0.380     -0.992 bc            1 LIG       -0.352835
     21 C18          12.671     -0.093     -2.091 bd            1 LIG       -0.352835
     22 C19          12.660      0.814      0.218 bf            1 LIG       -0.352835
     23 C20          12.858     -2.037      0.672 bg            1 LIG       -0.257789
     24 C21          12.862     -3.351      1.138 bh            1 LIG       -0.048839
     25 C22          14.009     -3.868      1.993 bj            1 LIG        0.264203
     26 O1           13.796     -3.462      3.345 bk            1 LIG       -0.505186
     27 H1           14.666     -5.224      8.217 bl            1 LIG        0.150014
     28 H2           15.852     -3.845      8.018 bm            1 LIG        0.150014
     29 H3           15.875     -5.265      6.865 bn            1 LIG        0.150014
     30 H4           13.711     -4.702      6.230 bo            1 LIG        0.276526
     31 H5           13.906     -2.330      5.515 bp            1 LIG       -0.019337
     32 H6           15.637     -2.592      5.900 bq            1 LIG       -0.019337
     33 H7           15.793     -3.353      3.743 bs            1 LIG        0.045902
     34 H8           15.948     -5.594      4.827 bt            1 LIG        0.031538
     35 H9           14.214     -5.791      4.722 bu            1 LIG        0.031538
     36 H10          16.184     -5.624      2.413 bv            1 LIG        0.038584
     37 H11          15.228     -6.998      2.876 bw            1 LIG        0.038584
     38 H12          14.405     -5.622      0.859 bx            1 LIG       -0.001274
     39 H13          12.364     -5.775      3.132 by            1 LIG        0.049939
     40 H14          11.812     -8.149      3.989 bz            1 LIG        0.149648
     41 H15          12.212    -10.633      3.433 cb            1 LIG        0.160725
     42 H16          13.265    -10.943      1.026 ci            1 LIG        0.170953
     43 H17          10.772     -5.892      1.381 cj            1 LIG        0.340626
     44 H18           9.948     -4.353     -0.336 ck            1 LIG        0.145227
     45 H19          10.034     -2.101     -1.214 cm            1 LIG        0.150670
     46 H20          10.413      1.445     -1.012 cn            1 LIG        0.070732
     47 H21           9.818      0.070     -0.220 ct            1 LIG        0.070732
     48 H22          10.052      0.016     -1.886 cw            1 LIG        0.070732
     49 H23          12.153     -0.681     -2.833 da            1 LIG        0.070732
     50 H24          13.684     -0.472     -2.001 db            1 LIG        0.070732
     51 H25          12.756      0.914     -2.486 dc            1 LIG        0.070732
     52 H26          12.517      1.867     -0.021 dd            1 LIG        0.070732
     53 H27          13.728      0.621      0.210 de            1 LIG        0.070732
     54 H28          12.373      0.636      1.246 df            1 LIG        0.070732
     55 H29          13.666     -1.391      0.978 dg            1 LIG        0.134216
     56 H30          14.948     -3.414      1.661 dh            1 LIG        0.030542
     57 H31          13.661     -3.420      7.288 di            1 LIG        0.276526
@<TRIPOS>BOND
        1  1  2  1
        2  1  27  1
        3  1  28  1
        4  1  29  1
        5  2  3  1
        6  2  30  1
        7  2  57  1
        8  3  4  1
        9  3  31  1
        10  3  32  1
        11  4  5  1
        12  4  26  1
        13  4  33  1
        14  5  6  1
        15  5  34  1
        16  5  35  1
        17  6  7  1
        18  6  36  1
        19  6  37  1
        20  7  8  1
        21  7  25  1
        22  7  38  1
        23  8  9  1
        24  8  14  1
        25  8  39  1
        26  9  10  2
        27  9  13  1
        28  10  11  1
        29  10  40  1
        30  11  12  2
        31  11  41  1
        32  12  13  1
        33  12  42  1
        34  14  15  1
        35  14  43  1
        36  15  16  2
        37  15  24  1
        38  16  17  1
        39  16  44  1
        40  17  18  2
        41  17  45  1
        42  18  19  1
        43  18  23  1
        44  19  20  1
        45  19  21  1
        46  19  22  1
        47  20  46  1
        48  20  47  1
        49  20  48  1
        50  21  49  1
        51  21  50  1
        52  21  51  1
        53  22  52  1
        54  22  53  1
        55  22  54  1
        56  23  24  2
        57  23  55  1
        58  24  25  1
        59  25  26  1
        60  25  56  1
@<TRIPOS>SUBSTRUCTURE
       1 LIG             1 RESIDUE    0 **** ROOT      0
