@<TRIPOS>MOLECULE
LIG
47 49
SMALL
USER_CHARGES
@<TRIPOS>ATOM
      1 C1          -15.139    -19.188    -26.019 aa            1 LIG        0.100123
      2 C2          -15.501    -20.013    -24.947 ab            1 LIG       -0.186206
      3 C3          -14.553    -19.774    -27.152 ad            1 LIG       -0.186206
      4 C4          -15.350    -17.724    -25.954 ae            1 LIG        0.332889
      5 C5          -15.283    -21.382    -25.011 af            1 LIG       -0.189302
      6 C6          -14.364    -21.151    -27.226 ah            1 LIG       -0.189302
      7 C7          -14.732    -21.976    -26.158 ai            1 LIG        0.048002
      8 N1          -16.118    -17.184    -24.934 aj            1 LIG       -0.409192
      9 C8          -16.399    -15.880    -24.669 ak            1 LIG        0.631627
     10 N2          -14.846    -16.908    -26.822 an            1 LIG       -0.493547
     11 C9          -15.012    -15.520    -26.720 ao            1 LIG        0.232702
     12 C10         -15.752    -14.949    -25.675 ap            1 LIG       -0.053367
     13 C11         -15.874    -13.559    -25.576 aq            1 LIG       -0.247236
     14 C12         -15.254    -12.751    -26.535 av            1 LIG        0.218713
     15 C13         -14.530    -13.323    -27.582 aw            1 LIG       -0.199543
     16 C14         -14.410    -14.709    -27.680 ax            1 LIG       -0.196139
     17 O1          -17.116    -15.551    -23.722 ay            1 LIG       -0.626369
     18 C15         -14.485    -23.503    -26.209 az            1 LIG        0.453904
     19 O2          -14.241    -23.901    -27.575 bb            1 LIG       -0.494882
     20 F1          -15.350    -11.405    -26.463 bc            1 LIG       -0.167516
     21 C16         -14.669    -25.165    -28.110 bd            1 LIG        0.194028
     22 C17         -13.989    -26.425    -27.538 bf            1 LIG        0.187081
     23 O3          -12.604    -26.540    -27.838 bg            1 LIG       -0.452409
     24 C18         -12.323    -27.151    -29.092 bh            1 LIG        0.066024
     25 C19         -15.696    -24.227    -25.581 bj            1 LIG       -0.306831
     26 C20         -13.178    -23.777    -25.457 bk            1 LIG       -0.306831
     27 H1          -15.939    -19.612    -24.044 bl            1 LIG        0.157340
     28 H2          -14.254    -19.169    -27.997 bm            1 LIG        0.157340
     29 H3          -15.547    -21.966    -24.143 bn            1 LIG        0.158619
     30 H4          -13.913    -21.565    -28.116 bo            1 LIG        0.158619
     31 H5          -16.602    -17.825    -24.320 bp            1 LIG        0.326217
     32 H6          -16.433    -13.114    -24.765 bq            1 LIG        0.191931
     33 H7          -14.055    -12.688    -28.315 bs            1 LIG        0.173180
     34 H8          -13.844    -15.152    -28.486 bt            1 LIG        0.174752
     35 H9          -14.489    -25.151    -29.183 bu            1 LIG        0.014941
     36 H10         -15.751    -25.247    -28.014 bv            1 LIG        0.014941
     37 H11         -14.535    -27.324    -27.830 bw            1 LIG        0.027670
     38 H12         -14.052    -26.388    -26.463 bx            1 LIG        0.027670
     39 H13         -11.245    -27.185    -29.244 by            1 LIG        0.049564
     40 H14         -12.753    -26.589    -29.922 bz            1 LIG        0.049564
     41 H15         -12.695    -28.175    -29.129 cb            1 LIG        0.049564
     42 H16         -15.752    -24.031    -24.511 ci            1 LIG        0.084645
     43 H17         -15.751    -25.304    -25.675 cj            1 LIG        0.084645
     44 H18         -16.580    -23.843    -26.063 ck            1 LIG        0.084645
     45 H19         -13.291    -23.678    -24.376 cm            1 LIG        0.084645
     46 H20         -12.461    -23.027    -25.771 cn            1 LIG        0.084645
     47 H21         -12.739    -24.750    -25.679 ct            1 LIG        0.084645
@<TRIPOS>BOND
        1  1  2  2
        2  1  3  1
        3  1  4  1
        4  2  5  1
        5  2  27  1
        6  3  6  2
        7  3  28  1
        8  4  8  1
        9  4  10  2
        10  5  7  2
        11  5  29  1
        12  6  7  1
        13  6  30  1
        14  7  18  1
        15  8  9  1
        16  8  31  1
        17  9  12  1
        18  9  17  2
        19  10  11  1
        20  11  12  2
        21  11  16  1
        22  12  13  1
        23  13  14  2
        24  13  32  1
        25  14  15  1
        26  14  20  1
        27  15  16  2
        28  15  33  1
        29  16  34  1
        30  18  19  1
        31  18  25  1
        32  18  26  1
        33  19  21  1
        34  21  22  1
        35  21  35  1
        36  21  36  1
        37  22  23  1
        38  22  37  1
        39  22  38  1
        40  23  24  1
        41  24  39  1
        42  24  40  1
        43  24  41  1
        44  25  42  1
        45  25  43  1
        46  25  44  1
        47  26  45  1
        48  26  46  1
        49  26  47  1
@<TRIPOS>SUBSTRUCTURE
       1 LIG             1 RESIDUE    0 **** ROOT      0
