@<TRIPOS>MOLECULE
LIG
37 39
SMALL
USER_CHARGES
@<TRIPOS>ATOM
      1 O1           28.002      1.155    -10.756 aa            1 LIG       -0.679843
      2 C1           27.189      0.209    -11.446 ab            1 LIG        0.204025
      3 C2           26.517      0.801    -12.696 ad            1 LIG        0.106132
      4 C3           25.192      0.074    -12.835 ae            1 LIG        0.155336
      5 C4           24.841     -0.239    -11.404 af            1 LIG       -0.056547
      6 C5           25.998     -0.271    -10.613 ah            1 LIG       -0.031197
      7 C6           25.902     -0.701     -9.275 ai            1 LIG       -0.019678
      8 C7           24.642     -0.942     -8.724 aj            1 LIG       -0.187321
      9 C8           23.497     -0.836     -9.502 ak            1 LIG       -0.207885
     10 C9           23.591     -0.507    -10.856 an            1 LIG        0.226332
     11 O2           22.518     -0.437    -11.719 ao            1 LIG       -0.300150
     12 C10          21.247     -0.651    -11.259 ap            1 LIG        0.274720
     13 C11          20.613     -1.857    -11.532 aq            1 LIG       -0.276344
     14 C12          19.336     -2.091    -11.038 av            1 LIG        0.226623
     15 F1           18.701     -3.245    -11.317 aw            1 LIG       -0.157111
     16 C13          18.697     -1.128    -10.267 ax            1 LIG       -0.254673
     17 C14          19.312      0.101    -10.024 ay            1 LIG        0.192645
     18 C15          18.652      1.149     -9.271 az            1 LIG        0.222391
     19 C16          20.596      0.326    -10.508 bb            1 LIG       -0.250356
     20 S1           27.300     -1.027     -8.206 bc            1 LIG        1.114737
     21 O3           26.847     -1.952     -7.163 bd            1 LIG       -0.553353
     22 O4           28.431     -1.357     -9.079 bf            1 LIG       -0.553353
     23 F2           26.225      2.065    -12.419 bg            1 LIG       -0.188361
     24 N1           18.133      1.984     -8.664 bh            1 LIG       -0.364161
     25 F3           24.301      0.816    -13.495 bj            1 LIG       -0.191535
     26 N2           27.709      0.464     -7.449 bk            1 LIG       -0.854968
     27 H1           28.531      1.655    -11.395 bl            1 LIG        0.499697
     28 H2           27.788     -0.650    -11.749 bm            1 LIG        0.088426
     29 H3           27.137      0.815    -13.596 bn            1 LIG        0.056911
     30 H4           25.302     -0.832    -13.432 bo            1 LIG        0.059281
     31 H5           24.546     -1.235     -7.689 bp            1 LIG        0.187187
     32 H6           22.540     -1.063     -9.064 bq            1 LIG        0.175650
     33 H7           21.111     -2.612    -12.116 bs            1 LIG        0.176862
     34 H8           17.739     -1.376     -9.856 bt            1 LIG        0.183677
     35 H9           21.099      1.246    -10.271 bu            1 LIG        0.186306
     36 H10          26.932      0.800     -6.868 bv            1 LIG        0.394948
     37 H11          28.036      1.165     -8.114 bw            1 LIG        0.394948
@<TRIPOS>BOND
        1  1  2  1
        2  1  27  1
        3  2  3  1
        4  2  6  1
        5  2  28  1
        6  3  4  1
        7  3  23  1
        8  3  29  1
        9  4  5  1
        10  4  25  1
        11  4  30  1
        12  5  6  2
        13  5  10  1
        14  6  7  1
        15  7  8  2
        16  7  20  1
        17  8  9  1
        18  8  31  1
        19  9  10  2
        20  9  32  1
        21  10  11  1
        22  11  12  1
        23  12  13  2
        24  12  19  1
        25  13  14  1
        26  13  33  1
        27  14  15  1
        28  14  16  2
        29  16  17  1
        30  16  34  1
        31  17  18  1
        32  17  19  2
        33  18  24  3
        34  19  35  1
        35  20  21  2
        36  20  22  2
        37  20  26  1
        38  26  36  1
        39  26  37  1
@<TRIPOS>SUBSTRUCTURE
       1 LIG             1 RESIDUE    0 **** ROOT      0
