@<TRIPOS>MOLECULE
LIG
37 39
SMALL
USER_CHARGES
@<TRIPOS>ATOM
      1 O1           27.614      1.531    -11.165 aa            1 LIG       -0.701289
      2 C1           27.154      0.286    -11.648 ab            1 LIG        0.220218
      3 C2           26.538      0.423    -13.046 ad            1 LIG       -0.042664
      4 C3           25.041      0.601    -12.827 ae            1 LIG        0.004090
      5 C4           24.808     -0.068    -11.492 af            1 LIG       -0.027191
      6 C5           26.013     -0.240    -10.802 ah            1 LIG       -0.017285
      7 C6           26.016     -0.778     -9.506 ai            1 LIG       -0.003905
      8 C7           24.798     -1.085     -8.899 aj            1 LIG       -0.184256
      9 C8           23.602     -0.930     -9.593 ak            1 LIG       -0.208302
     10 C9           23.601     -0.425    -10.899 an            1 LIG        0.214856
     11 O2           22.484     -0.287    -11.693 ao            1 LIG       -0.304337
     12 C10          21.242     -0.572    -11.196 ap            1 LIG        0.275072
     13 C11          20.673     -1.827    -11.404 aq            1 LIG       -0.287080
     14 C12          19.423     -2.109    -10.866 av            1 LIG        0.226147
     15 F1           18.856     -3.316    -11.054 aw            1 LIG       -0.154950
     16 C13          18.744     -1.140    -10.139 ax            1 LIG       -0.274965
     17 C14          19.291      0.124     -9.955 ay            1 LIG        0.169177
     18 Cl1          18.431      1.347     -9.093 az            1 LIG       -0.104639
     19 C15          20.549      0.396    -10.470 bb            1 LIG       -0.271938
     20 S1           27.532     -1.071     -8.589 bc            1 LIG        0.886531
     21 O3           27.235     -2.018     -7.510 bd            1 LIG       -0.542408
     22 O4           28.585     -1.406     -9.545 bf            1 LIG       -0.542408
     23 C16          27.931      0.613     -7.846 bg            1 LIG        0.055328
     24 F2           27.096      0.825     -6.833 bh            1 LIG       -0.213586
     25 H1           28.368      1.819    -11.707 bj            1 LIG        0.478136
     26 H2           27.972     -0.431    -11.702 bk            1 LIG        0.055059
     27 H3           26.689     -0.497    -13.616 bl            1 LIG        0.033678
     28 H4           26.972      1.232    -13.636 bm            1 LIG        0.033678
     29 H5           24.803      1.666    -12.780 bn            1 LIG        0.047740
     30 H6           24.429      0.174    -13.622 bo            1 LIG        0.047740
     31 H7           24.778     -1.466     -7.890 bp            1 LIG        0.180411
     32 H8           22.684     -1.238     -9.118 bq            1 LIG        0.171774
     33 H9           21.205     -2.589    -11.952 bs            1 LIG        0.181374
     34 H10          17.803     -1.388     -9.703 bt            1 LIG        0.192808
     35 H11          20.991      1.355    -10.265 bu            1 LIG        0.192498
     36 H12          28.953      0.597     -7.475 bv            1 LIG        0.107444
     37 H13          27.809      1.388     -8.601 bw            1 LIG        0.107444
@<TRIPOS>BOND
        1  1  2  1
        2  1  25  1
        3  2  3  1
        4  2  6  1
        5  2  26  1
        6  3  4  1
        7  3  27  1
        8  3  28  1
        9  4  5  1
        10  4  29  1
        11  4  30  1
        12  5  6  2
        13  5  10  1
        14  6  7  1
        15  7  8  2
        16  7  20  1
        17  8  9  1
        18  8  31  1
        19  9  10  2
        20  9  32  1
        21  10  11  1
        22  11  12  1
        23  12  13  2
        24  12  19  1
        25  13  14  1
        26  13  33  1
        27  14  15  1
        28  14  16  2
        29  16  17  1
        30  16  34  1
        31  17  18  1
        32  17  19  2
        33  19  35  1
        34  20  21  2
        35  20  22  2
        36  20  23  1
        37  23  24  1
        38  23  36  1
        39  23  37  1
@<TRIPOS>SUBSTRUCTURE
       1 LIG             1 RESIDUE    0 **** ROOT      0
