@<TRIPOS>MOLECULE
LIG
50 54
SMALL
USER_CHARGES
@<TRIPOS>ATOM
      1 C1           93.286     49.805    267.685 aa            1 LIG        0.000419
      2 C2           92.568     47.348    266.466 ab            1 LIG       -0.307700
      3 C3           91.614     48.339    266.676 ad            1 LIG        0.282349
      4 C4           91.972     49.535    267.290 ae            1 LIG       -0.242225
      5 C5           93.894     47.544    266.903 af            1 LIG        0.295571
      6 C6           94.272     48.784    267.508 ah            1 LIG        0.245554
      7 N1           95.562     48.966    267.930 ai            1 LIG       -0.482335
      8 C7           96.447     47.958    267.737 aj            1 LIG        0.165978
      9 C8           96.061     46.747    267.177 ak            1 LIG        0.172336
     10 N2           94.794     46.535    266.751 an            1 LIG       -0.487809
     11 C9           93.594     51.104    268.328 ao            1 LIG        0.072603
     12 C10          94.574     51.951    267.791 ap            1 LIG       -0.179938
     13 C11          94.874     53.184    268.369 aq            1 LIG       -0.193651
     14 C12          92.896     51.452    269.484 av            1 LIG       -0.238953
     15 N3           90.275     48.132    266.319 aw            1 LIG       -0.561975
     16 C13          89.717     47.351    265.291 ax            1 LIG        0.150010
     17 C14          90.422     47.124    264.101 ay            1 LIG        0.177452
     18 N4           89.920     46.433    263.047 az            1 LIG       -0.466382
     19 C15          88.663     45.940    263.164 bb            1 LIG        0.239203
     20 C16          87.888     46.098    264.311 bc            1 LIG       -0.272614
     21 C17          88.423     46.806    265.395 bd            1 LIG       -0.025430
     22 S1           87.481     46.892    266.924 bf            1 LIG        0.921603
     23 O1           86.138     46.364    266.666 bg            1 LIG       -0.548880
     24 O2           87.648     48.238    267.479 bh            1 LIG       -0.548880
     25 C18          88.385     45.672    268.038 bj            1 LIG       -0.370595
     26 C19          93.214     52.671    270.077 bk            1 LIG        0.074536
     27 C20          94.167     53.571    269.513 bl            1 LIG        0.073539
     28 C21          94.172     54.730    270.342 bm            1 LIG       -0.212162
     29 C22          93.284     54.505    271.355 bn            1 LIG       -0.130764
     30 N5           92.750     53.245    271.243 bo            1 LIG       -0.046980
     31 C23          91.800     52.649    272.175 bp            1 LIG        0.242962
     32 F1           91.868     53.312    273.327 bq            1 LIG       -0.157314
     33 F2           90.587     52.723    271.629 bs            1 LIG       -0.157314
     34 H1           92.286     46.401    266.026 bt            1 LIG        0.166972
     35 H2           91.212     50.289    267.452 bu            1 LIG        0.161095
     36 H3           97.466     48.141    268.043 bv            1 LIG        0.057599
     37 H4           96.768     45.947    267.016 bw            1 LIG        0.060173
     38 H5           95.099     51.655    266.891 bx            1 LIG        0.141811
     39 H6           95.623     53.829    267.927 by            1 LIG        0.145418
     40 H7           92.145     50.801    269.912 bz            1 LIG        0.183780
     41 H8           89.585     48.624    266.877 cb            1 LIG        0.379713
     42 H9           91.423     47.501    263.973 ci            1 LIG        0.090425
     43 H10          88.278     45.384    262.323 cj            1 LIG        0.077774
     44 H11          86.900     45.656    264.363 ck            1 LIG        0.170766
     45 H12          87.873     45.635    268.999 cm            1 LIG        0.147549
     46 H13          89.412     46.011    268.175 cn            1 LIG        0.147549
     47 H14          88.366     44.687    267.576 ct            1 LIG        0.147549
     48 H15          94.784     55.616    270.226 cw            1 LIG        0.155675
     49 H16          93.000     55.126    272.193 da            1 LIG        0.161927
     50 H17          92.049     51.614    272.398 db            1 LIG        0.122014
@<TRIPOS>BOND
        1  1  4  2
        2  1  6  1
        3  1  11  1
        4  2  3  2
        5  2  5  1
        6  2  34  1
        7  3  4  1
        8  3  15  1
        9  4  35  1
        10  5  6  2
        11  5  10  1
        12  6  7  1
        13  7  8  2
        14  8  9  1
        15  8  36  1
        16  9  10  2
        17  9  37  1
        18  11  12  2
        19  11  14  1
        20  12  13  1
        21  12  38  1
        22  13  27  2
        23  13  39  1
        24  14  26  2
        25  14  40  1
        26  15  16  1
        27  15  41  1
        28  16  17  2
        29  16  21  1
        30  17  18  1
        31  17  42  1
        32  18  19  2
        33  19  20  1
        34  19  43  1
        35  20  21  2
        36  20  44  1
        37  21  22  1
        38  22  23  2
        39  22  24  2
        40  22  25  1
        41  25  45  1
        42  25  46  1
        43  25  47  1
        44  26  27  1
        45  26  30  1
        46  27  28  1
        47  28  29  2
        48  28  48  1
        49  29  30  1
        50  29  49  1
        51  30  31  1
        52  31  32  1
        53  31  33  1
        54  31  50  1
@<TRIPOS>SUBSTRUCTURE
       1 LIG             1 RESIDUE    0 **** ROOT      0
