@<TRIPOS>MOLECULE
LIG
55 59
SMALL
USER_CHARGES
@<TRIPOS>ATOM
      1 C1           -6.337     12.351    -12.017 aa            1 LIG        0.010258
      2 C2           -6.474     11.782    -10.753 ab            1 LIG       -0.231143
      3 C3           -7.704     10.577    -13.042 ad            1 LIG       -0.206081
      4 C4           -6.970     11.771    -13.141 ae            1 LIG       -0.190035
      5 C5           -7.812     10.006    -11.768 af            1 LIG        0.069198
      6 C6           -7.214     10.615    -10.608 ah            1 LIG        0.056897
      7 C7           -7.608      9.748     -9.518 ai            1 LIG        0.100663
      8 N1           -8.285      8.745     -9.990 aj            1 LIG       -0.423255
      9 N2           -8.418      8.871    -11.301 ak            1 LIG       -0.025671
     10 C8           -7.335      9.888     -8.025 an            1 LIG        0.034130
     11 N3           -4.385     13.723    -11.442 ao            1 LIG       -0.308204
     12 C9           -5.553     13.649    -12.171 ap            1 LIG        0.670487
     13 O1           -5.979     14.572    -12.857 aq            1 LIG       -0.628713
     14 C10          -5.963     10.485     -7.736 av            1 LIG        0.090402
     15 C11          -5.855     11.758     -7.165 aw            1 LIG       -0.195217
     16 C12          -4.597     12.306     -6.918 ax            1 LIG       -0.193419
     17 C13          -3.442     11.586     -7.238 ay            1 LIG        0.108265
     18 C14          -3.559     10.314     -7.801 az            1 LIG       -0.193419
     19 C15          -4.812      9.765     -8.051 bb            1 LIG       -0.195217
     20 C16          -2.094     12.166     -6.978 bc            1 LIG        0.036002
     21 C17          -1.741     13.427     -6.494 bd            1 LIG       -0.191253
     22 N4           -0.409     13.456     -6.432 bf            1 LIG        0.226459
     23 N5            0.181     12.359     -6.807 bg            1 LIG       -0.439492
     24 C18          -0.803     11.553     -7.173 bh            1 LIG       -0.015946
     25 C19           0.424     14.570     -5.995 bj            1 LIG       -0.203614
     26 C20          -3.759     15.042    -11.211 bk            1 LIG        0.019778
     27 C21          -2.342     15.092    -11.715 bl            1 LIG       -0.029567
     28 C22          -1.513     13.920    -11.264 bm            1 LIG       -0.019989
     29 C23          -2.177     12.599    -11.664 bn            1 LIG       -0.029567
     30 C24          -3.624     12.483    -11.064 bo            1 LIG        0.019778
     31 H1           -6.020     12.264     -9.887 bp            1 LIG        0.155801
     32 H2           -8.171     10.119    -13.913 bq            1 LIG        0.139027
     33 H3           -6.863     12.243    -14.104 bs            1 LIG        0.144206
     34 H4           -8.919      8.164    -11.836 bt            1 LIG        0.282711
     35 H5           -8.096     10.538     -7.591 bu            1 LIG        0.036214
     36 H6           -7.432      8.921     -7.518 bv            1 LIG        0.036214
     37 H7           -6.744     12.318     -6.921 bw            1 LIG        0.134842
     38 H8           -4.511     13.288     -6.476 bx            1 LIG        0.137201
     39 H9           -2.667      9.751     -8.046 by            1 LIG        0.137201
     40 H10          -4.897      8.782     -8.493 bz            1 LIG        0.134842
     41 H11          -2.328     14.280     -6.200 cb            1 LIG        0.152473
     42 H12          -0.611     10.555     -7.546 ci            1 LIG        0.141856
     43 H13          -0.187     15.424     -5.706 cj            1 LIG        0.104763
     44 H14           1.091     14.867     -6.803 ck            1 LIG        0.104763
     45 H15           1.032     14.260     -5.146 cm            1 LIG        0.104763
     46 H16          -3.690     15.105    -10.132 cn            1 LIG        0.050864
     47 H17          -4.352     15.888    -11.563 ct            1 LIG        0.050864
     48 H18          -2.432     15.124    -12.785 cw            1 LIG        0.021520
     49 H19          -1.836     16.006    -11.424 da            1 LIG        0.021520
     50 H20          -1.259     13.965    -10.211 db            1 LIG        0.020536
     51 H21          -0.577     14.100    -11.726 dc            1 LIG        0.020536
     52 H22          -2.155     12.500    -12.757 dd            1 LIG        0.021520
     53 H23          -1.532     11.785    -11.328 de            1 LIG        0.021520
     54 H24          -3.522     12.416     -9.981 df            1 LIG        0.050864
     55 H25          -4.028     11.561    -11.511 dg            1 LIG        0.050864
@<TRIPOS>BOND
        1  1  2  2
        2  1  4  1
        3  1  12  1
        4  2  6  1
        5  2  31  1
        6  3  4  2
        7  3  5  1
        8  3  32  1
        9  4  33  1
        10  5  6  2
        11  5  9  1
        12  6  7  1
        13  7  8  2
        14  7  10  1
        15  8  9  1
        16  9  34  1
        17  10  14  1
        18  10  35  1
        19  10  36  1
        20  11  12  1
        21  11  26  1
        22  11  30  1
        23  12  13  2
        24  14  15  2
        25  14  19  1
        26  15  16  1
        27  15  37  1
        28  16  17  2
        29  16  38  1
        30  17  18  1
        31  17  20  1
        32  18  19  2
        33  18  39  1
        34  19  40  1
        35  20  21  2
        36  20  24  1
        37  21  22  1
        38  21  41  1
        39  22  23  1
        40  22  25  1
        41  23  24  2
        42  24  42  1
        43  25  43  1
        44  25  44  1
        45  25  45  1
        46  26  27  1
        47  26  46  1
        48  26  47  1
        49  27  28  1
        50  27  48  1
        51  27  49  1
        52  28  29  1
        53  28  50  1
        54  28  51  1
        55  29  30  1
        56  29  52  1
        57  29  53  1
        58  30  54  1
        59  30  55  1
@<TRIPOS>SUBSTRUCTURE
       1 LIG             1 RESIDUE    0 **** ROOT      0
