@<TRIPOS>MOLECULE
LIG
60 64
SMALL
USER_CHARGES
@<TRIPOS>ATOM
      1 C1           -4.256     -3.106     13.566 aa            1 LIG        0.068901
      2 O1           -3.873     -2.359     14.711 ab            1 LIG       -0.360640
      3 C2           -2.525     -2.110     14.813 ad            1 LIG        0.187223
      4 C3           -1.750     -2.874     15.675 ae            1 LIG       -0.222698
      5 C4           -0.391     -2.618     15.809 af            1 LIG       -0.225365
      6 C5            0.223     -1.591     15.087 ah            1 LIG        0.270907
      7 N1            1.608     -1.371     15.323 ai            1 LIG       -0.547710
      8 C6            2.532     -0.441     14.775 aj            1 LIG        0.420408
      9 N2            2.166      0.396     13.756 ak            1 LIG       -0.555512
     10 C7            3.112      1.237     13.230 an            1 LIG        0.217315
     11 C8            4.413      1.274     13.703 ao            1 LIG       -0.135045
     12 N3            4.745      0.489     14.760 ap            1 LIG        0.072500
     13 C9            5.898      0.384     15.484 aq            1 LIG       -0.165044
     14 C10           5.600     -0.541     16.516 av            1 LIG        0.026994
     15 N4            4.386     -1.054     16.363 aw            1 LIG       -0.527719
     16 C11           3.837     -0.392     15.329 ax            1 LIG        0.164023
     17 C12           2.655      2.142     12.133 ay            1 LIG        0.097520
     18 C13           3.565      2.631     11.172 az            1 LIG       -0.186614
     19 C14           3.122      3.439     10.125 bb            1 LIG       -0.137014
     20 C15           1.776      3.778     10.026 bc            1 LIG       -0.179476
     21 C16           0.868      3.339     10.998 bd            1 LIG        0.016700
     22 C17           1.309      2.524     12.044 bf            1 LIG       -0.250298
     23 C18          -0.577      3.762     10.913 bg            1 LIG        0.662981
     24 O2           -1.111      3.932      9.816 bh            1 LIG       -0.590126
     25 N5           -1.179      4.003     12.123 bj            1 LIG       -0.495220
     26 C19          -2.494      4.571     12.243 bk            1 LIG        0.193680
     27 C20          -3.473      4.374     11.255 bl            1 LIG       -0.216019
     28 C21          -4.728      4.950     11.398 bm            1 LIG       -0.183666
     29 C22          -5.031      5.726     12.525 bn            1 LIG        0.011028
     30 C23          -4.056      5.917     13.517 bo            1 LIG       -0.183666
     31 C24          -2.791      5.337     13.377 bp            1 LIG       -0.216019
     32 C25          -6.394      6.344     12.668 bq            1 LIG        1.150910
     33 O3           -7.218      6.126     11.748 bs            1 LIG       -0.915697
     34 O4           -6.607      7.028     13.697 bt            1 LIG       -0.915697
     35 C26          -0.554     -0.814     14.196 bu            1 LIG       -0.299521
     36 C27          -1.940     -1.081     14.064 bv            1 LIG        0.198731
     37 O5           -2.744     -0.336     13.216 bw            1 LIG       -0.355122
     38 C28          -2.213      0.646     12.346 bx            1 LIG        0.068683
     39 H1           -5.336     -3.255     13.586 by            1 LIG        0.052302
     40 H2           -3.784     -4.089     13.556 bz            1 LIG        0.052302
     41 H3           -4.010     -2.584     12.640 cb            1 LIG        0.052302
     42 H4           -2.208     -3.664     16.253 ci            1 LIG        0.154414
     43 H5            0.198     -3.213     16.494 cj            1 LIG        0.189208
     44 H6            2.005     -1.972     16.035 ck            1 LIG        0.355821
     45 H7            5.175      1.943     13.329 cm            1 LIG        0.111387
     46 H8            6.778      0.975     15.277 cn            1 LIG        0.143763
     47 H9            6.243     -0.827     17.333 ct            1 LIG        0.137652
     48 H10           4.609      2.361     11.229 cw            1 LIG        0.157028
     49 H11           3.825      3.800      9.386 da            1 LIG        0.140734
     50 H12           1.437      4.409      9.213 db            1 LIG        0.161574
     51 H13           0.608      2.178     12.788 dc            1 LIG        0.136613
     52 H14          -0.628      3.927     12.969 dd            1 LIG        0.287905
     53 H15          -3.273      3.773     10.391 de            1 LIG        0.140391
     54 H16          -5.474      4.796     10.633 df            1 LIG        0.158801
     55 H17          -4.282      6.517     14.393 dg            1 LIG        0.158801
     56 H18          -2.039      5.491     14.142 dh            1 LIG        0.140391
     57 H19          -0.113     -0.018     13.631 di            1 LIG        0.146510
     58 H20          -3.033      1.072     11.765 dj            1 LIG        0.052495
     59 H21          -1.495      0.221     11.644 dk            1 LIG        0.052495
     60 H22          -1.759      1.451     12.919 dl            1 LIG        0.052495
@<TRIPOS>BOND
        1  1  2  1
        2  1  39  1
        3  1  40  1
        4  1  41  1
        5  2  3  1
        6  3  4  2
        7  3  36  1
        8  4  5  1
        9  4  42  1
        10  5  6  2
        11  5  43  1
        12  6  7  1
        13  6  35  1
        14  7  8  1
        15  7  44  1
        16  8  9  2
        17  8  16  1
        18  9  10  1
        19  10  11  2
        20  10  17  1
        21  11  12  1
        22  11  45  1
        23  12  13  1
        24  12  16  1
        25  13  14  2
        26  13  46  1
        27  14  15  1
        28  14  47  1
        29  15  16  2
        30  17  18  2
        31  17  22  1
        32  18  19  1
        33  18  48  1
        34  19  20  2
        35  19  49  1
        36  20  21  1
        37  20  50  1
        38  21  22  2
        39  21  23  1
        40  22  51  1
        41  23  24  2
        42  23  25  1
        43  25  26  1
        44  25  52  1
        45  26  27  2
        46  26  31  1
        47  27  28  1
        48  27  53  1
        49  28  29  2
        50  28  54  1
        51  29  30  1
        52  29  32  1
        53  30  31  2
        54  30  55  1
        55  31  56  1
        56  32  33  2
        57  32  34  1
        58  35  36  2
        59  35  57  1
        60  36  37  1
        61  37  38  1
        62  38  58  1
        63  38  59  1
        64  38  60  1
@<TRIPOS>SUBSTRUCTURE
       1 LIG             1 RESIDUE    0 **** ROOT      0
