@<TRIPOS>MOLECULE
LIG
39 41
SMALL
USER_CHARGES
@<TRIPOS>ATOM
      1 N1           27.584      1.557    -11.122 aa            1 LIG       -0.842126
      2 C1           27.160      0.266    -11.661 ab            1 LIG        0.222494
      3 C2           26.518      0.357    -13.059 ad            1 LIG        0.286644
      4 C3           25.030      0.591    -12.841 ae            1 LIG       -0.010726
      5 C4           24.805     -0.065    -11.500 af            1 LIG       -0.044452
      6 C5           26.015     -0.244    -10.806 ah            1 LIG       -0.028996
      7 C6           26.017     -0.777     -9.513 ai            1 LIG       -0.007035
      8 C7           24.799     -1.091     -8.898 aj            1 LIG       -0.187553
      9 C8           23.607     -0.924     -9.592 ak            1 LIG       -0.200618
     10 C9           23.598     -0.426    -10.892 an            1 LIG        0.213928
     11 O1           22.482     -0.280    -11.687 ao            1 LIG       -0.316203
     12 C10          21.248     -0.574    -11.193 ap            1 LIG        0.276781
     13 C11          20.674     -1.829    -11.399 aq            1 LIG       -0.270206
     14 C12          19.424     -2.110    -10.875 av            1 LIG        0.228517
     15 F1           18.851     -3.317    -11.067 aw            1 LIG       -0.154848
     16 C13          18.737     -1.145    -10.141 ax            1 LIG       -0.256310
     17 C14          19.288      0.126     -9.966 ay            1 LIG        0.189337
     18 C15          18.575      1.167     -9.235 az            1 LIG        0.220010
     19 C16          20.545      0.395    -10.463 bb            1 LIG       -0.264154
     20 S1           27.523     -1.068     -8.588 bc            1 LIG        0.915936
     21 O2           27.217     -1.999     -7.494 bd            1 LIG       -0.533368
     22 O3           28.593     -1.390     -9.523 bf            1 LIG       -0.533368
     23 C17          27.910      0.603     -7.846 bg            1 LIG       -0.369770
     24 F2           27.062      1.285    -13.848 bh            1 LIG       -0.208802
     25 F3           26.651     -0.826    -13.665 bj            1 LIG       -0.208802
     26 N2           18.023      1.990     -8.667 bk            1 LIG       -0.367045
     27 H1           28.178      1.373    -10.321 bl            1 LIG        0.338378
     28 H2           28.234      1.950    -11.794 bm            1 LIG        0.338378
     29 H3           27.997     -0.438    -11.720 bn            1 LIG        0.099091
     30 H4           24.416      0.188    -13.648 bo            1 LIG        0.059802
     31 H5           24.810      1.655    -12.777 bp            1 LIG        0.059802
     32 H6           24.779     -1.489     -7.900 bq            1 LIG        0.181857
     33 H7           22.684     -1.235     -9.103 bs            1 LIG        0.186690
     34 H8           21.213     -2.594    -11.944 bt            1 LIG        0.192695
     35 H9           17.802     -1.427     -9.704 bu            1 LIG        0.182611
     36 H10          21.007      1.348    -10.259 bv            1 LIG        0.161359
     37 H11          28.850      0.484     -7.320 bw            1 LIG        0.150025
     38 H12          27.103      0.898     -7.179 bx            1 LIG        0.150025
     39 H13          28.047      1.349     -8.620 by            1 LIG        0.150025
@<TRIPOS>BOND
        1  1  2  1
        2  1  27  1
        3  1  28  1
        4  2  3  1
        5  2  6  1
        6  2  29  1
        7  3  4  1
        8  3  24  1
        9  3  25  1
        10  4  5  1
        11  4  30  1
        12  4  31  1
        13  5  6  2
        14  5  10  1
        15  6  7  1
        16  7  8  2
        17  7  20  1
        18  8  9  1
        19  8  32  1
        20  9  10  2
        21  9  33  1
        22  10  11  1
        23  11  12  1
        24  12  13  2
        25  12  19  1
        26  13  14  1
        27  13  34  1
        28  14  15  1
        29  14  16  2
        30  16  17  1
        31  16  35  1
        32  17  18  1
        33  17  19  2
        34  18  26  3
        35  19  36  1
        36  20  21  2
        37  20  22  2
        38  20  23  1
        39  23  37  1
        40  23  38  1
        41  23  39  1
@<TRIPOS>SUBSTRUCTURE
       1 LIG             1 RESIDUE    0 **** ROOT      0
