@<TRIPOS>MOLECULE
LIG
46 48
SMALL
USER_CHARGES
@<TRIPOS>ATOM
      1 N1           24.572     41.402      2.950 aa            1 LIG       -0.492321
      2 C1           24.807     42.590      2.107 ab            1 LIG        0.062704
      3 C2           25.888     43.495      2.735 ad            1 LIG       -0.133806
      4 C3           27.184     42.708      3.017 ae            1 LIG        0.649227
      5 C4           26.888     41.407      3.800 af            1 LIG       -0.133806
      6 C5           25.779     40.576      3.117 ah            1 LIG        0.062704
      7 C6           19.694     40.528      5.518 ai            1 LIG       -0.069735
      8 C7           19.404     40.800      6.868 aj            1 LIG        0.066732
      9 C8           18.101     40.605      7.354 ak            1 LIG        0.105426
     10 C9           17.102     40.127      6.507 an            1 LIG       -0.197230
     11 C10          17.391     39.846      5.176 ao            1 LIG       -0.139751
     12 C11          18.675     40.051      4.685 ap            1 LIG       -0.186168
     13 C12          21.042     40.730      4.931 aq            1 LIG        0.310788
     14 N2           21.096     41.747      4.037 av            1 LIG       -0.521076
     15 C13          22.268     41.983      3.421 aw            1 LIG        0.119785
     16 C14          23.399     41.201      3.660 ax            1 LIG        0.524359
     17 N3           23.340     40.164      4.548 ay            1 LIG       -0.619048
     18 C15          22.171     39.944      5.201 az            1 LIG        0.481646
     19 Cl1          17.689     40.944      9.000 bb            1 LIG       -0.097416
     20 Cl2          20.636     41.387      7.939 bc            1 LIG       -0.085581
     21 N4           22.142     38.889      6.114 bd            1 LIG       -0.590181
     22 N5           28.099     43.594      3.866 bf            1 LIG       -0.999600
     23 C16          27.944     42.419      1.724 bg            1 LIG       -0.387590
     24 H1           25.135     42.243      1.126 bh            1 LIG        0.076321
     25 H2           23.930     43.193      1.893 bj            1 LIG        0.076321
     26 H3           25.482     43.905      3.662 bk            1 LIG        0.043307
     27 H4           26.076     44.348      2.079 bl            1 LIG        0.043307
     28 H5           26.554     41.637      4.813 bm            1 LIG        0.043307
     29 H6           27.785     40.794      3.905 bn            1 LIG        0.043307
     30 H7           26.103     40.219      2.139 bo            1 LIG        0.076321
     31 H8           25.580     39.675      3.700 bp            1 LIG        0.076321
     32 H9           16.102     39.977      6.887 bq            1 LIG        0.181790
     33 H10          16.614     39.478      4.522 bs            1 LIG        0.166863
     34 H11          18.888     39.842      3.646 bt            1 LIG        0.159521
     35 C17          23.342     38.105      6.392 bu            1 LIG       -0.112170
     36 H12          27.640     43.812      4.740 bv            1 LIG        0.458855
     37 H13          28.880     41.891      1.909 bw            1 LIG        0.113248
     38 H14          28.185     43.332      1.176 bx            1 LIG        0.113248
     39 H15          27.367     41.793      1.042 by            1 LIG        0.113248
     40 H16          28.963     43.110      4.062 bz            1 LIG        0.458855
     41 H17          22.214     42.791      2.714 cb            1 LIG        0.048387
     42 H18          21.334     38.708      6.692 ci            1 LIG        0.345047
     43 H19          23.110     37.335      7.127 cj            1 LIG        0.095225
     44 H20          24.120     38.760      6.785 ck            1 LIG        0.095225
     45 H21          23.691     37.637      5.472 cm            1 LIG        0.095225
     46 H22          28.304     44.454      3.377 cn            1 LIG        0.458855
@<TRIPOS>BOND
        1  1  2  1
        2  1  6  1
        3  1  16  1
        4  2  3  1
        5  2  24  1
        6  2  25  1
        7  3  4  1
        8  3  26  1
        9  3  27  1
        10  4  5  1
        11  4  22  1
        12  4  23  1
        13  5  6  1
        14  5  28  1
        15  5  29  1
        16  6  30  1
        17  6  31  1
        18  7  8  2
        19  7  12  1
        20  7  13  1
        21  8  9  1
        22  8  20  1
        23  9  10  2
        24  9  19  1
        25  10  11  1
        26  10  32  1
        27  11  12  2
        28  11  33  1
        29  12  34  1
        30  13  14  2
        31  13  18  1
        32  14  15  1
        33  15  16  2
        34  15  41  1
        35  16  17  1
        36  17  18  2
        37  18  21  1
        38  21  35  1
        39  21  42  1
        40  22  36  1
        41  22  40  1
        42  22  46  1
        43  23  37  1
        44  23  38  1
        45  23  39  1
        46  35  43  1
        47  35  44  1
        48  35  45  1
@<TRIPOS>SUBSTRUCTURE
       1 LIG             1 RESIDUE    0 **** ROOT      0
