@<TRIPOS>MOLECULE
LIG
58 63
SMALL
USER_CHARGES
@<TRIPOS>ATOM
      1 C1           -6.835     -5.513     14.365 aa            1 LIG       -0.312741
      2 C2           -6.247     -4.126     14.520 ab            1 LIG        0.383026
      3 O1           -7.299     -3.182     14.633 ad            1 LIG       -0.729434
      4 C3           -5.394     -4.037     15.796 ae            1 LIG       -0.066128
      5 C4           -4.671     -2.704     15.925 af            1 LIG        0.074870
      6 N1           -3.860     -2.351     14.745 ah            1 LIG       -0.392051
      7 C5           -4.632     -2.396     13.492 ai            1 LIG        0.074870
      8 C6           -5.366     -3.738     13.316 aj            1 LIG       -0.066128
      9 C7           -2.509     -2.108     14.819 ak            1 LIG        0.258631
     10 C8           -1.913     -1.094     14.052 an            1 LIG       -0.211593
     11 C9           -0.545     -0.820     14.195 ao            1 LIG       -0.212018
     12 C10           0.227     -1.589     15.086 ap            1 LIG        0.267420
     13 N2            1.609     -1.371     15.317 aq            1 LIG       -0.571606
     14 C11           2.536     -0.447     14.761 av            1 LIG        0.445185
     15 N3            2.174      0.380     13.733 aw            1 LIG       -0.558312
     16 C12           3.109      1.239     13.218 ax            1 LIG        0.211366
     17 C13           4.416      1.282     13.699 ay            1 LIG       -0.118825
     18 N4            4.744      0.489     14.757 az            1 LIG        0.061100
     19 C14           5.898      0.379     15.485 bb            1 LIG       -0.164435
     20 C15           5.591     -0.529     16.526 bc            1 LIG        0.030118
     21 N5            4.379     -1.045     16.370 bd            1 LIG       -0.518118
     22 C16           3.837     -0.396     15.325 bf            1 LIG        0.172474
     23 C17           2.634      2.161     12.121 bg            1 LIG        0.111095
     24 C18           3.544      2.641     11.162 bh            1 LIG       -0.200989
     25 C19           3.147      3.463     10.109 bj            1 LIG       -0.191241
     26 C20           1.802      3.817     10.016 bk            1 LIG        0.061481
     27 C21           0.993      4.596      9.118 bl            1 LIG       -0.012821
     28 N6           -0.248      4.606      9.514 bm            1 LIG       -0.402986
     29 N7           -0.336      3.892     10.629 bn            1 LIG       -0.020635
     30 C22           0.885      3.360     10.996 bo            1 LIG        0.071013
     31 C23           1.271      2.538     12.062 bp            1 LIG       -0.253213
     32 C24          -0.383     -2.614     15.811 bq            1 LIG       -0.212018
     33 C25          -1.732     -2.860     15.685 bs            1 LIG       -0.211593
     34 H1           -6.047     -6.263     14.337 bt            1 LIG        0.075504
     35 H2           -7.407     -5.575     13.442 bu            1 LIG        0.075504
     36 H3           -7.497     -5.739     15.197 bv            1 LIG        0.075504
     37 H4           -7.848     -3.452     15.375 bw            1 LIG        0.460922
     38 H5           -6.006     -4.222     16.681 bx            1 LIG        0.022812
     39 H6           -4.654     -4.842     15.812 by            1 LIG        0.022812
     40 H7           -4.049     -2.706     16.828 bz            1 LIG        0.048587
     41 H8           -5.382     -1.893     16.095 cb            1 LIG        0.048587
     42 H9           -3.948     -2.256     12.653 ci            1 LIG        0.048587
     43 H10          -5.357     -1.597     13.434 cj            1 LIG        0.048587
     44 H11          -5.979     -3.729     12.411 ck            1 LIG        0.022812
     45 H12          -4.638     -4.532     13.130 cm            1 LIG        0.022812
     46 H13          -2.517     -0.495     13.381 cn            1 LIG        0.137756
     47 H14          -0.109     -0.019     13.634 ct            1 LIG        0.155533
     48 H15           2.006     -1.973     16.022 cw            1 LIG        0.359684
     49 H16           5.178      1.958     13.337 da            1 LIG        0.120027
     50 H17           6.784      0.956     15.275 db            1 LIG        0.146691
     51 H18           6.231     -0.805     17.348 dc            1 LIG        0.145902
     52 H19           4.584      2.348     11.225 dd            1 LIG        0.137416
     53 H20           3.860      3.805      9.380 de            1 LIG        0.142422
     54 H21           1.302      5.119      8.232 df            1 LIG        0.148915
     55 H22          -1.225      3.789     11.095 dg            1 LIG        0.284326
     56 H23           0.569      2.207     12.805 dh            1 LIG        0.159245
     57 H24           0.200     -3.216     16.490 di            1 LIG        0.155533
     58 H25          -2.185     -3.657     16.261 dj            1 LIG        0.137756
@<TRIPOS>BOND
        1  1  2  1
        2  1  34  1
        3  1  35  1
        4  1  36  1
        5  2  3  1
        6  2  4  1
        7  2  8  1
        8  3  37  1
        9  4  5  1
        10  4  38  1
        11  4  39  1
        12  5  6  1
        13  5  40  1
        14  5  41  1
        15  6  7  1
        16  6  9  1
        17  7  8  1
        18  7  42  1
        19  7  43  1
        20  8  44  1
        21  8  45  1
        22  9  10  2
        23  9  33  1
        24  10  11  1
        25  10  46  1
        26  11  12  2
        27  11  47  1
        28  12  13  1
        29  12  32  1
        30  13  14  1
        31  13  48  1
        32  14  15  2
        33  14  22  1
        34  15  16  1
        35  16  17  2
        36  16  23  1
        37  17  18  1
        38  17  49  1
        39  18  19  1
        40  18  22  1
        41  19  20  2
        42  19  50  1
        43  20  21  1
        44  20  51  1
        45  21  22  2
        46  23  24  2
        47  23  31  1
        48  24  25  1
        49  24  52  1
        50  25  26  2
        51  25  53  1
        52  26  27  1
        53  26  30  1
        54  27  28  2
        55  27  54  1
        56  28  29  1
        57  29  30  1
        58  29  55  1
        59  30  31  2
        60  31  56  1
        61  32  33  2
        62  32  57  1
        63  33  58  1
@<TRIPOS>SUBSTRUCTURE
       1 LIG             1 RESIDUE    0 **** ROOT      0
