@<TRIPOS>MOLECULE
LIG
38 40
SMALL
USER_CHARGES
@<TRIPOS>ATOM
      1 O1           27.546      1.566    -11.242 aa            1 LIG       -0.700631
      2 C1           27.142      0.293    -11.688 ab            1 LIG        0.217359
      3 C2           26.517      0.392    -13.076 ad            1 LIG       -0.043637
      4 C3           25.039      0.609    -12.838 ae            1 LIG        0.003170
      5 C4           24.802     -0.070    -11.499 af            1 LIG       -0.023554
      6 C5           26.010     -0.242    -10.820 ah            1 LIG       -0.011340
      7 C6           26.013     -0.782     -9.524 ai            1 LIG       -0.018230
      8 C7           24.796     -1.089     -8.906 aj            1 LIG       -0.196987
      9 C8           23.602     -0.929     -9.591 ak            1 LIG       -0.207179
     10 C9           23.600     -0.434    -10.904 an            1 LIG        0.217187
     11 O2           22.484     -0.283    -11.691 ao            1 LIG       -0.307180
     12 C10          21.245     -0.572    -11.194 ap            1 LIG        0.274786
     13 C11          20.676     -1.830    -11.401 aq            1 LIG       -0.274679
     14 C12          19.422     -2.108    -10.869 av            1 LIG        0.227003
     15 F1           18.855     -3.322    -11.058 aw            1 LIG       -0.155606
     16 C13          18.742     -1.143    -10.142 ax            1 LIG       -0.254857
     17 C14          19.291      0.131     -9.973 ay            1 LIG        0.191269
     18 C15          18.577      1.168     -9.238 az            1 LIG        0.222087
     19 C16          20.554      0.392    -10.466 bb            1 LIG       -0.252204
     20 S1           27.511     -1.083     -8.612 bc            1 LIG        0.808395
     21 O3           27.209     -2.020     -7.532 bd            1 LIG       -0.505107
     22 O4           28.571     -1.433     -9.565 bf            1 LIG       -0.505107
     23 C17          27.947      0.578     -7.861 bg            1 LIG        0.608311
     24 F2           28.088      1.520     -8.825 bh            1 LIG       -0.185864
     25 F3           27.005      0.927     -6.982 bj            1 LIG       -0.185864
     26 N1           18.008      1.990     -8.661 bk            1 LIG       -0.367919
     27 F4           29.105      0.368     -7.255 bl            1 LIG       -0.185864
     28 H1           28.325      1.831    -11.753 bm            1 LIG        0.481369
     29 H2           27.981     -0.406    -11.711 bn            1 LIG        0.059793
     30 H3           26.966      1.224    -13.658 bo            1 LIG        0.037700
     31 H4           26.690     -0.513    -13.623 bp            1 LIG        0.037700
     32 H5           24.432      0.168    -13.637 bq            1 LIG        0.051310
     33 H6           24.795      1.658    -12.776 bs            1 LIG        0.051310
     34 H7           24.777     -1.471     -7.894 bt            1 LIG        0.175509
     35 H8           22.682     -1.226     -9.110 bu            1 LIG        0.171821
     36 H9           21.209     -2.594    -11.948 bv            1 LIG        0.182295
     37 H10          17.793     -1.410     -9.704 bw            1 LIG        0.182630
     38 H11          21.014      1.355    -10.268 bx            1 LIG        0.180805
@<TRIPOS>BOND
        1  1  2  1
        2  1  28  1
        3  2  3  1
        4  2  6  1
        5  2  29  1
        6  3  4  1
        7  3  30  1
        8  3  31  1
        9  4  5  1
        10  4  32  1
        11  4  33  1
        12  5  6  2
        13  5  10  1
        14  6  7  1
        15  7  8  2
        16  7  20  1
        17  8  9  1
        18  8  34  1
        19  9  10  2
        20  9  35  1
        21  10  11  1
        22  11  12  1
        23  12  13  2
        24  12  19  1
        25  13  14  1
        26  13  36  1
        27  14  15  1
        28  14  16  2
        29  16  17  1
        30  16  37  1
        31  17  18  1
        32  17  19  2
        33  18  26  3
        34  19  38  1
        35  20  21  2
        36  20  22  2
        37  20  23  1
        38  23  24  1
        39  23  25  1
        40  23  27  1
@<TRIPOS>SUBSTRUCTURE
       1 LIG             1 RESIDUE    0 **** ROOT      0
