@<TRIPOS>MOLECULE
LIG
45 48
SMALL
USER_CHARGES
@<TRIPOS>ATOM
      1 C1           93.282     49.779    267.694 aa            1 LIG       -0.002334
      2 C2           92.559     47.337    266.489 ab            1 LIG       -0.307058
      3 C3           91.605     48.330    266.673 ad            1 LIG        0.280650
      4 C4           91.971     49.523    267.278 ae            1 LIG       -0.247897
      5 C5           93.895     47.530    266.926 af            1 LIG        0.295784
      6 C6           94.275     48.767    267.529 ah            1 LIG        0.245114
      7 N1           95.562     48.963    267.954 ai            1 LIG       -0.483318
      8 C7           96.452     47.953    267.769 aj            1 LIG        0.164261
      9 C8           96.060     46.739    267.211 ak            1 LIG        0.171258
     10 N2           94.799     46.519    266.790 an            1 LIG       -0.490728
     11 C9           93.595     51.084    268.331 ao            1 LIG        0.057409
     12 C10          94.572     51.930    267.785 ap            1 LIG       -0.168907
     13 C11          94.843     53.154    268.397 aq            1 LIG       -0.217558
     14 C12          94.143     53.532    269.520 av            1 LIG        0.369908
     15 C13          93.175     52.709    270.077 aw            1 LIG       -0.217558
     16 C14          92.908     51.479    269.481 ax            1 LIG       -0.168907
     17 N3           90.270     48.111    266.310 ay            1 LIG       -0.561808
     18 C15          89.710     47.333    265.278 az            1 LIG        0.149964
     19 C16          90.417     47.125    264.092 bb            1 LIG        0.177752
     20 N4           89.896     46.450    263.039 bc            1 LIG       -0.470516
     21 C17          88.653     45.944    263.161 bd            1 LIG        0.238369
     22 C18          87.886     46.085    264.318 bf            1 LIG       -0.272784
     23 C19          88.417     46.801    265.400 bg            1 LIG       -0.025786
     24 S1           87.474     46.880    266.912 bh            1 LIG        0.918695
     25 O1           86.132     46.407    266.665 bj            1 LIG       -0.547974
     26 O2           87.687     48.230    267.490 bk            1 LIG       -0.547974
     27 C20          88.369     45.621    267.998 bl            1 LIG       -0.370081
     28 N5           94.402     54.749    270.127 bm            1 LIG       -0.904996
     29 H1           92.285     46.392    266.051 bn            1 LIG        0.163663
     30 H2           91.210     50.282    267.424 bo            1 LIG        0.156073
     31 H3           97.479     48.151    268.047 bp            1 LIG        0.054704
     32 H4           96.774     45.939    267.046 bq            1 LIG        0.056764
     33 H5           95.108     51.641    266.909 bs            1 LIG        0.151308
     34 H6           95.610     53.812    267.957 bt            1 LIG        0.135593
     35 H7           92.649     53.012    270.996 bu            1 LIG        0.135593
     36 H8           92.166     50.843    269.943 bv            1 LIG        0.151308
     37 H9           89.567     48.584    266.865 bw            1 LIG        0.378738
     38 H10          91.413     47.522    263.981 bx            1 LIG        0.086405
     39 H11          88.269     45.383    262.319 by            1 LIG        0.075755
     40 H12          86.907     45.634    264.389 bz            1 LIG        0.169772
     41 H13          87.839     45.510    268.941 cb            1 LIG        0.147565
     42 H14          89.386     45.974    268.159 ci            1 LIG        0.147565
     43 H15          88.375     44.668    267.466 cj            1 LIG        0.147565
     44 H16          93.900     55.030    270.957 ck            1 LIG        0.389324
     45 H17          95.088     55.380    269.684 cm            1 LIG        0.389324
@<TRIPOS>BOND
        1  1  4  2
        2  1  6  1
        3  1  11  1
        4  2  3  2
        5  2  5  1
        6  2  29  1
        7  3  4  1
        8  3  17  1
        9  4  30  1
        10  5  6  2
        11  5  10  1
        12  6  7  1
        13  7  8  2
        14  8  9  1
        15  8  31  1
        16  9  10  2
        17  9  32  1
        18  11  12  2
        19  11  16  1
        20  12  13  1
        21  12  33  1
        22  13  14  2
        23  13  34  1
        24  14  15  1
        25  14  28  1
        26  15  16  2
        27  15  35  1
        28  16  36  1
        29  17  18  1
        30  17  37  1
        31  18  19  2
        32  18  23  1
        33  19  20  1
        34  19  38  1
        35  20  21  2
        36  21  22  1
        37  21  39  1
        38  22  23  2
        39  22  40  1
        40  23  24  1
        41  24  25  2
        42  24  26  2
        43  24  27  1
        44  27  41  1
        45  27  42  1
        46  27  43  1
        47  28  44  1
        48  28  45  1
@<TRIPOS>SUBSTRUCTURE
       1 LIG             1 RESIDUE    0 **** ROOT      0
