@<TRIPOS>MOLECULE
LIG
43 45
SMALL
USER_CHARGES
@<TRIPOS>ATOM
      1 N1           24.699     41.288      3.108 aa            1 LIG       -0.494350
      2 C1           24.754     42.366      2.083 ab            1 LIG        0.025951
      3 C2           26.082     43.185      2.078 ad            1 LIG        0.304144
      4 N2           27.254     42.333      2.413 ae            1 LIG       -0.800524
      5 C3           27.122     41.495      3.636 af            1 LIG        0.304144
      6 C4           25.927     40.526      3.444 ah            1 LIG        0.025951
      7 C5           19.706     40.207      5.492 ai            1 LIG        0.066733
      8 C6           19.476     40.522      6.829 aj            1 LIG       -0.241071
      9 C7           18.197     40.380      7.380 ak            1 LIG        0.166514
     10 C8           17.116     39.987      6.582 an            1 LIG       -0.196847
     11 C9           17.336     39.694      5.221 ao            1 LIG       -0.131255
     12 C10          18.621     39.838      4.672 ap            1 LIG       -0.177840
     13 C11          21.064     40.437      4.925 aq            1 LIG       -0.125054
     14 C12          21.183     41.438      3.956 av            1 LIG        0.248197
     15 N3           22.371     41.661      3.375 aw            1 LIG       -0.633166
     16 C13          23.501     40.978      3.701 ax            1 LIG        0.778893
     17 N4           23.399     40.001      4.638 ay            1 LIG       -0.656514
     18 C14          22.231     39.697      5.247 az            1 LIG        0.613016
     19 Cl1          17.944     40.731      9.049 bb            1 LIG       -0.134536
     20 N5           22.224     38.616      6.229 bc            1 LIG       -0.945349
     21 C15          26.280     43.871      0.759 bd            1 LIG       -0.324729
     22 C16          28.386     40.722      3.869 bf            1 LIG       -0.324729
     23 H1           23.926     43.069      2.183 bg            1 LIG        0.093379
     24 H2           24.613     41.887      1.113 bh            1 LIG        0.093379
     25 H3           26.013     43.972      2.831 bj            1 LIG        0.097454
     26 H4           28.069     42.922      2.505 bk            1 LIG        0.428485
     27 H5           26.965     42.129      4.510 bl            1 LIG        0.097454
     28 H6           25.805     39.938      4.356 bm            1 LIG        0.093379
     29 H7           26.123     39.807      2.647 bn            1 LIG        0.093379
     30 H8           20.283     40.857      7.464 bo            1 LIG        0.161327
     31 H9           16.129     39.893      7.011 bp            1 LIG        0.169327
     32 H10          16.510     39.385      4.596 bq            1 LIG        0.161901
     33 H11          18.770     39.632      3.621 bs            1 LIG        0.149546
     34 H12          20.345     42.039      3.635 bt            1 LIG        0.066829
     35 H13          21.366     38.367      6.700 bu            1 LIG        0.417713
     36 H14          23.077     38.117      6.436 bv            1 LIG        0.417713
     37 H15          25.410     44.488      0.535 bw            1 LIG        0.113778
     38 H16          26.406     43.123     -0.025 bx            1 LIG        0.113778
     39 H17          27.169     44.500      0.806 by            1 LIG        0.113778
     40 H18          28.278     40.112      4.766 bz            1 LIG        0.113778
     41 H19          29.217     41.415      3.999 cb            1 LIG        0.113778
     42 H20          28.581     40.077      3.013 ci            1 LIG        0.113778
     43 H21          27.396     41.702      1.637 cj            1 LIG        0.428485
@<TRIPOS>BOND
        1  1  2  1
        2  1  6  1
        3  1  16  1
        4  2  3  1
        5  2  23  1
        6  2  24  1
        7  3  4  1
        8  3  21  1
        9  3  25  1
        10  4  5  1
        11  4  26  1
        12  4  43  1
        13  5  6  1
        14  5  22  1
        15  5  27  1
        16  6  28  1
        17  6  29  1
        18  7  8  2
        19  7  12  1
        20  7  13  1
        21  8  9  1
        22  8  30  1
        23  9  10  2
        24  9  19  1
        25  10  11  1
        26  10  31  1
        27  11  12  2
        28  11  32  1
        29  12  33  1
        30  13  14  2
        31  13  18  1
        32  14  15  1
        33  14  34  1
        34  15  16  2
        35  16  17  1
        36  17  18  2
        37  18  20  1
        38  20  35  1
        39  20  36  1
        40  21  37  1
        41  21  38  1
        42  21  39  1
        43  22  40  1
        44  22  41  1
        45  22  42  1
@<TRIPOS>SUBSTRUCTURE
       1 LIG             1 RESIDUE    0 **** ROOT      0
