@<TRIPOS>MOLECULE
LIG
43 46
SMALL
USER_CHARGES
@<TRIPOS>ATOM
      1 C1           23.188     32.965     51.324 aa            1 LIG       -0.220663
      2 C2           23.732     33.294     52.689 ab            1 LIG        0.109478
      3 O1           23.007     32.907     53.767 ad            1 LIG       -0.218027
      4 C3           23.753     33.316     54.827 ae            1 LIG        0.331481
      5 N1           24.872     33.927     54.492 af            1 LIG       -0.504900
      6 C4           24.864     33.926     53.173 ah            1 LIG        0.005743
      7 C5           23.289     32.961     56.204 ai            1 LIG        0.104719
      8 C6           24.205     32.974     57.261 aj            1 LIG       -0.187457
      9 C7           23.822     32.584     58.541 ak            1 LIG       -0.133799
     10 C8           22.515     32.166     58.776 an            1 LIG       -0.193917
     11 C9           21.582     32.141     57.737 ao            1 LIG        0.087528
     12 C10          20.145     31.707     58.019 ap            1 LIG        0.030095
     13 N2           19.873     30.293     57.705 aq            1 LIG        0.045719
     14 N3           19.407     30.030     56.414 av            1 LIG       -0.388204
     15 C11          19.139     28.831     56.006 aw            1 LIG        0.212816
     16 C12          19.368     27.759     56.959 ax            1 LIG       -0.097679
     17 C13          19.846     28.003     58.199 ay            1 LIG       -0.192323
     18 C14          20.142     29.343     58.672 az            1 LIG        0.588869
     19 O2           20.565     29.551     59.812 bb            1 LIG       -0.644594
     20 C15          18.637     28.533     54.646 bc            1 LIG        0.117959
     21 C16          17.847     27.402     54.385 bd            1 LIG       -0.265848
     22 C17          17.403     27.122     53.096 bf            1 LIG        0.224746
     23 F1           16.642     26.030     52.867 bg            1 LIG       -0.160163
     24 C18          17.738     27.973     52.044 bh            1 LIG       -0.274895
     25 C19          18.517     29.101     52.283 bj            1 LIG        0.224746
     26 F2           18.841     29.927     51.262 bk            1 LIG       -0.160163
     27 C20          18.966     29.381     53.574 bl            1 LIG       -0.265848
     28 C21          21.971     32.553     56.454 bm            1 LIG       -0.248671
     29 H1           22.998     31.896     51.212 bn            1 LIG        0.097158
     30 H2           23.877     33.258     50.531 bo            1 LIG        0.097158
     31 H3           22.247     33.482     51.137 bp            1 LIG        0.097158
     32 H4           25.663     34.355     52.584 bq            1 LIG        0.151561
     33 H5           25.227     33.279     57.091 bs            1 LIG        0.167265
     34 H6           24.541     32.601     59.345 bt            1 LIG        0.151126
     35 H7           22.226     31.852     59.769 bu            1 LIG        0.146278
     36 H8           19.886     31.939     59.054 bv            1 LIG        0.081825
     37 H9           19.470     32.336     57.435 bw            1 LIG        0.081825
     38 H10          19.192     26.726     56.689 bx            1 LIG        0.120199
     39 H11          20.026     27.178     58.873 by            1 LIG        0.140158
     40 H12          17.563     26.726     55.178 bz            1 LIG        0.185103
     41 H13          17.398     27.750     51.044 cb            1 LIG        0.190405
     42 H14          19.578     30.257     53.730 ci            1 LIG        0.185103
     43 H15          21.254     32.528     55.647 cj            1 LIG        0.180929
@<TRIPOS>BOND
        1  1  2  1
        2  1  29  1
        3  1  30  1
        4  1  31  1
        5  2  3  1
        6  2  6  2
        7  3  4  1
        8  4  5  2
        9  4  7  1
        10  5  6  1
        11  6  32  1
        12  7  8  2
        13  7  28  1
        14  8  9  1
        15  8  33  1
        16  9  10  2
        17  9  34  1
        18  10  11  1
        19  10  35  1
        20  11  12  1
        21  11  28  2
        22  12  13  1
        23  12  36  1
        24  12  37  1
        25  13  14  1
        26  13  18  1
        27  14  15  2
        28  15  16  1
        29  15  20  1
        30  16  17  2
        31  16  38  1
        32  17  18  1
        33  17  39  1
        34  18  19  2
        35  20  21  2
        36  20  27  1
        37  21  22  1
        38  21  40  1
        39  22  23  1
        40  22  24  2
        41  24  25  1
        42  24  41  1
        43  25  26  1
        44  25  27  2
        45  27  42  1
        46  28  43  1
@<TRIPOS>SUBSTRUCTURE
       1 LIG             1 RESIDUE    0 **** ROOT      0
