@<TRIPOS>MOLECULE
LIG
52 55
SMALL
USER_CHARGES
@<TRIPOS>ATOM
      1 C1           -4.256     -3.106     13.568 aa            1 LIG        0.065425
      2 O1           -3.871     -2.359     14.711 ab            1 LIG       -0.353879
      3 C2           -2.524     -2.112     14.812 ad            1 LIG        0.190763
      4 C3           -1.748     -2.873     15.676 ae            1 LIG       -0.222511
      5 C4           -0.391     -2.616     15.811 af            1 LIG       -0.223669
      6 C5            0.219     -1.587     15.091 ah            1 LIG        0.272735
      7 N1            1.606     -1.364     15.328 ai            1 LIG       -0.567198
      8 C6            2.537     -0.447     14.770 aj            1 LIG        0.446269
      9 N2            2.173      0.386     13.754 ak            1 LIG       -0.556354
     10 C7            3.109      1.240     13.232 an            1 LIG        0.211258
     11 C8            4.409      1.283     13.704 ao            1 LIG       -0.117588
     12 N3            4.738      0.498     14.765 ap            1 LIG        0.066398
     13 C9            5.894      0.390     15.487 aq            1 LIG       -0.163071
     14 C10           5.600     -0.542     16.516 av            1 LIG        0.031144
     15 N4            4.390     -1.060     16.368 aw            1 LIG       -0.515643
     16 C11           3.837     -0.396     15.334 ax            1 LIG        0.172016
     17 C12           2.649      2.150     12.126 ay            1 LIG        0.104400
     18 C13           3.557      2.640     11.169 az            1 LIG       -0.184105
     19 C14           3.123      3.457     10.128 bb            1 LIG       -0.222092
     20 C15           1.770      3.818     10.023 bc            1 LIG        0.211867
     21 O2            1.329      4.602      8.985 bd            1 LIG       -0.362410
     22 C16           2.114      5.688      8.518 bf            1 LIG        0.062699
     23 C17           0.861      3.361     10.992 bg            1 LIG       -0.054883
     24 C18           1.305      2.529     12.033 bh            1 LIG       -0.234320
     25 C19          -0.615      3.761     10.892 bj            1 LIG        0.753326
     26 O3           -1.075      4.304      9.898 bk            1 LIG       -0.638870
     27 N5           -1.353      3.474     11.963 bl            1 LIG       -0.929673
     28 C20          -0.555     -0.817     14.195 bm            1 LIG       -0.299695
     29 C21          -1.947     -1.091     14.063 bn            1 LIG        0.201489
     30 O4           -2.760     -0.355     13.217 bo            1 LIG       -0.349655
     31 C22          -2.231      0.645     12.378 bp            1 LIG        0.061730
     32 H1           -5.336     -3.255     13.586 bq            1 LIG        0.054913
     33 H2           -3.784     -4.090     13.556 bs            1 LIG        0.054913
     34 H3           -4.010     -2.584     12.641 bt            1 LIG        0.054913
     35 H4           -2.203     -3.666     16.256 bu            1 LIG        0.154773
     36 H5            0.197     -3.219     16.494 bv            1 LIG        0.144592
     37 H6            2.004     -1.966     16.027 bw            1 LIG        0.364279
     38 H7            5.176      1.936     13.318 bx            1 LIG        0.128195
     39 H8            6.784      0.971     15.274 by            1 LIG        0.151492
     40 H9            6.245     -0.829     17.321 bz            1 LIG        0.148995
     41 H10           4.604      2.367     11.229 cb            1 LIG        0.165911
     42 H11           3.836      3.812      9.402 ci            1 LIG        0.153689
     43 H12           1.535      6.209      7.757 cj            1 LIG        0.060860
     44 H13           3.046      5.349      8.056 ck            1 LIG        0.060860
     45 H14           2.321      6.428      9.294 cm            1 LIG        0.060860
     46 H15           0.606      2.160     12.771 cn            1 LIG        0.183055
     47 H16          -2.337      3.702     11.971 ct            1 LIG        0.417671
     48 H17          -0.940      3.041     12.771 cw            1 LIG        0.417671
     49 H18          -0.110     -0.024     13.635 da            1 LIG        0.195710
     50 H19          -3.041      1.091     11.795 db            1 LIG        0.056915
     51 H20          -1.477      0.273     11.677 dc            1 LIG        0.056915
     52 H21          -1.806      1.410     13.025 dd            1 LIG        0.056915
@<TRIPOS>BOND
        1  1  2  1
        2  1  32  1
        3  1  33  1
        4  1  34  1
        5  2  3  1
        6  3  4  2
        7  3  29  1
        8  4  5  1
        9  4  35  1
        10  5  6  2
        11  5  36  1
        12  6  7  1
        13  6  28  1
        14  7  8  1
        15  7  37  1
        16  8  9  2
        17  8  16  1
        18  9  10  1
        19  10  11  2
        20  10  17  1
        21  11  12  1
        22  11  38  1
        23  12  13  1
        24  12  16  1
        25  13  14  2
        26  13  39  1
        27  14  15  1
        28  14  40  1
        29  15  16  2
        30  17  18  2
        31  17  24  1
        32  18  19  1
        33  18  41  1
        34  19  20  2
        35  19  42  1
        36  20  21  1
        37  20  23  1
        38  21  22  1
        39  22  43  1
        40  22  44  1
        41  22  45  1
        42  23  24  2
        43  23  25  1
        44  24  46  1
        45  25  26  2
        46  25  27  1
        47  27  47  1
        48  27  48  1
        49  28  29  2
        50  28  49  1
        51  29  30  1
        52  30  31  1
        53  31  50  1
        54  31  51  1
        55  31  52  1
@<TRIPOS>SUBSTRUCTURE
       1 LIG             1 RESIDUE    0 **** ROOT      0
