@<TRIPOS>MOLECULE
LIG
34 35
SMALL
USER_CHARGES
@<TRIPOS>ATOM
      1 C1           27.369      0.221    -11.488 aa            1 LIG       -0.263993
      2 C2           24.831     -0.033    -11.488 ab            1 LIG        0.059803
      3 C3           26.051     -0.206    -10.809 ad            1 LIG        0.071511
      4 C4           26.035     -0.769     -9.511 ae            1 LIG       -0.017803
      5 C5           24.806     -1.085     -8.911 af            1 LIG       -0.183713
      6 C6           23.613     -0.931     -9.603 ah            1 LIG       -0.199724
      7 C7           23.605     -0.433    -10.912 ai            1 LIG        0.232095
      8 O1           22.461     -0.320    -11.676 aj            1 LIG       -0.322387
      9 C8           21.223     -0.592    -11.172 ak            1 LIG        0.274405
     10 C9           20.653     -1.842    -11.392 an            1 LIG       -0.194435
     11 C10          19.396     -2.127    -10.861 ao            1 LIG       -0.127736
     12 C11          18.707     -1.144    -10.141 ap            1 LIG       -0.181851
     13 C12          19.267      0.123     -9.962 aq            1 LIG        0.187655
     14 C13          18.571      1.162     -9.228 av            1 LIG        0.218308
     15 C14          20.539      0.393    -10.471 aw            1 LIG       -0.252789
     16 S1           27.535     -1.086     -8.558 ax            1 LIG        0.859937
     17 O2           27.197     -2.025     -7.479 ay            1 LIG       -0.521172
     18 O3           28.616     -1.468     -9.466 az            1 LIG       -0.521172
     19 C15          27.932      0.614     -7.802 bb            1 LIG        0.277764
     20 F1           27.757      1.579     -8.698 bc            1 LIG       -0.178531
     21 F2           27.116      0.809     -6.770 bd            1 LIG       -0.178531
     22 C16          24.800      0.600    -12.788 bf            1 LIG        0.229303
     23 N1           24.800      1.124    -13.813 bg            1 LIG       -0.381684
     24 N2           18.026      1.992     -8.630 bh            1 LIG       -0.382922
     25 H1           28.118      0.586    -10.801 bj            1 LIG        0.118357
     26 H2           27.248      1.058    -12.180 bk            1 LIG        0.118357
     27 H3           27.795     -0.632    -12.013 bl            1 LIG        0.118357
     28 H4           24.778     -1.491     -7.912 bm            1 LIG        0.185794
     29 H5           22.687     -1.234     -9.128 bn            1 LIG        0.188029
     30 H6           21.196     -2.589    -11.955 bo            1 LIG        0.171139
     31 H7           18.972     -3.111    -11.002 bp            1 LIG        0.165304
     32 H8           17.746     -1.389     -9.717 bq            1 LIG        0.161438
     33 H9           21.004      1.357    -10.321 bs            1 LIG        0.146329
     34 H10          28.973      0.609     -7.492 bt            1 LIG        0.124561
@<TRIPOS>BOND
        1  1  3  1
        2  1  25  1
        3  1  26  1
        4  1  27  1
        5  2  3  2
        6  2  7  1
        7  2  22  1
        8  3  4  1
        9  4  5  2
        10  4  16  1
        11  5  6  1
        12  5  28  1
        13  6  7  2
        14  6  29  1
        15  7  8  1
        16  8  9  1
        17  9  10  2
        18  9  15  1
        19  10  11  1
        20  10  30  1
        21  11  12  2
        22  11  31  1
        23  12  13  1
        24  12  32  1
        25  13  14  1
        26  13  15  2
        27  14  24  3
        28  15  33  1
        29  16  17  2
        30  16  18  2
        31  16  19  1
        32  19  20  1
        33  19  21  1
        34  19  34  1
        35  22  23  3
@<TRIPOS>SUBSTRUCTURE
       1 LIG             1 RESIDUE    0 **** ROOT      0
