@<TRIPOS>MOLECULE
LIG
39 41
SMALL
USER_CHARGES
@<TRIPOS>ATOM
      1 C1          -14.584    -14.712    -27.554 aa            1 LIG       -0.196526
      2 C2          -15.156    -15.517    -26.573 ab            1 LIG        0.232733
      3 C3          -14.684    -13.331    -27.434 ad            1 LIG       -0.199866
      4 C4          -15.870    -14.964    -25.505 ae            1 LIG       -0.053843
      5 N1          -14.985    -16.889    -26.681 af            1 LIG       -0.495042
      6 C5          -15.379    -12.781    -26.358 ah            1 LIG        0.217935
      7 C6          -15.990    -13.583    -25.392 ai            1 LIG       -0.247450
      8 C7          -16.495    -15.911    -24.501 aj            1 LIG        0.631508
      9 N2          -16.129    -17.202    -24.727 ak            1 LIG       -0.409737
     10 O1          -17.275    -15.606    -23.599 an            1 LIG       -0.628046
     11 C8          -15.437    -17.715    -25.803 ao            1 LIG        0.333021
     12 C9          -15.256    -19.161    -25.964 ap            1 LIG        0.097659
     13 C10         -14.583    -19.608    -27.105 aq            1 LIG       -0.186935
     14 C11         -14.326    -20.945    -27.288 av            1 LIG       -0.191032
     15 C12         -14.748    -21.882    -26.342 aw            1 LIG       -0.021766
     16 C13         -15.453    -21.447    -25.215 ax            1 LIG       -0.191032
     17 C14         -15.710    -20.093    -25.024 ay            1 LIG       -0.186935
     18 F1          -15.467    -11.455    -26.271 az            1 LIG       -0.168758
     19 C15         -14.395    -23.365    -26.514 bb            1 LIG        0.591253
     20 C16         -15.585    -24.201    -26.039 bc            1 LIG       -0.353950
     21 C17         -13.169    -23.764    -25.688 bd            1 LIG       -0.353950
     22 C18         -14.016    -23.692    -27.958 bf            1 LIG       -0.353950
     23 H1          -14.047    -15.153    -28.381 bg            1 LIG        0.173955
     24 H2          -14.230    -12.681    -28.170 bh            1 LIG        0.172153
     25 H3          -16.532    -13.139    -24.569 bj            1 LIG        0.191083
     26 H4          -16.590    -17.863    -24.117 bk            1 LIG        0.325582
     27 H5          -14.227    -18.924    -27.864 bl            1 LIG        0.153447
     28 H6          -13.774    -21.211    -28.173 bm            1 LIG        0.152995
     29 H7          -15.783    -22.154    -24.470 bn            1 LIG        0.152995
     30 H8          -16.239    -19.788    -24.132 bo            1 LIG        0.153447
     31 H9          -16.445    -24.125    -26.706 bp            1 LIG        0.073228
     32 H10         -15.908    -23.890    -25.047 bq            1 LIG        0.073228
     33 H11         -15.279    -25.237    -25.976 bs            1 LIG        0.073228
     34 H12         -12.328    -23.116    -25.909 bt            1 LIG        0.073228
     35 H13         -12.799    -24.758    -25.888 bu            1 LIG        0.073228
     36 H14         -13.387    -23.705    -24.629 bv            1 LIG        0.073228
     37 H15         -13.300    -22.954    -28.292 bw            1 LIG        0.073228
     38 H16         -14.883    -23.689    -28.615 bx            1 LIG        0.073228
     39 H17         -13.511    -24.657    -28.047 by            1 LIG        0.073228
@<TRIPOS>BOND
        1  1  2  2
        2  1  3  1
        3  1  23  1
        4  2  4  1
        5  2  5  1
        6  3  6  2
        7  3  24  1
        8  4  7  2
        9  4  8  1
        10  5  11  2
        11  6  7  1
        12  6  18  1
        13  7  25  1
        14  8  9  1
        15  8  10  2
        16  9  11  1
        17  9  26  1
        18  11  12  1
        19  12  13  2
        20  12  17  1
        21  13  14  1
        22  13  27  1
        23  14  15  2
        24  14  28  1
        25  15  16  1
        26  15  19  1
        27  16  17  2
        28  16  29  1
        29  17  30  1
        30  19  20  1
        31  19  21  1
        32  19  22  1
        33  20  31  1
        34  20  32  1
        35  20  33  1
        36  21  34  1
        37  21  35  1
        38  21  36  1
        39  22  37  1
        40  22  38  1
        41  22  39  1
@<TRIPOS>SUBSTRUCTURE
       1 LIG             1 RESIDUE    0 **** ROOT      0
