@<TRIPOS>MOLECULE
LIG
38 40
SMALL
USER_CHARGES
@<TRIPOS>ATOM
      1 O1           27.573      1.560    -11.146 aa            1 LIG       -0.689538
      2 C1           27.154      0.309    -11.655 ab            1 LIG        0.207018
      3 C2           26.525      0.379    -13.056 ad            1 LIG        0.287937
      4 C3           25.035      0.581    -12.847 ae            1 LIG       -0.015686
      5 C4           24.812     -0.092    -11.508 af            1 LIG       -0.035375
      6 C5           26.021     -0.254    -10.817 ah            1 LIG       -0.026114
      7 C6           26.022     -0.790     -9.519 ai            1 LIG       -0.008459
      8 C7           24.806     -1.103     -8.909 aj            1 LIG       -0.187049
      9 C8           23.606     -0.932     -9.592 ak            1 LIG       -0.207727
     10 C9           23.608     -0.431    -10.899 an            1 LIG        0.218511
     11 O2           22.489     -0.246    -11.676 ao            1 LIG       -0.308097
     12 C10          21.254     -0.537    -11.177 ap            1 LIG        0.274862
     13 C11          20.685     -1.790    -11.389 aq            1 LIG       -0.267243
     14 C12          19.431     -2.062    -10.856 av            1 LIG        0.170453
     15 Cl1          18.684     -3.570    -11.098 aw            1 LIG       -0.108465
     16 C13          18.750     -1.104    -10.119 ax            1 LIG       -0.246225
     17 C14          19.299      0.163     -9.943 ay            1 LIG        0.192721
     18 C15          18.579      1.198     -9.229 az            1 LIG        0.222094
     19 C16          20.564      0.431    -10.448 bb            1 LIG       -0.251973
     20 S1           27.521     -1.066     -8.576 bc            1 LIG        0.924004
     21 O3           27.209     -1.975     -7.473 bd            1 LIG       -0.535819
     22 O4           28.601     -1.407     -9.500 bf            1 LIG       -0.535819
     23 C17          27.905      0.615     -7.864 bg            1 LIG       -0.372169
     24 F1           27.058      1.323    -13.830 bh            1 LIG       -0.204141
     25 F2           26.675     -0.799    -13.665 bj            1 LIG       -0.204141
     26 N1           18.010      2.027     -8.667 bk            1 LIG       -0.367524
     27 H1           28.337      1.887    -11.662 bl            1 LIG        0.499513
     28 H2           28.001     -0.373    -11.704 bm            1 LIG        0.080931
     29 H3           24.436      0.183    -13.667 bn            1 LIG        0.072987
     30 H4           24.795      1.642    -12.767 bo            1 LIG        0.072987
     31 H5           24.782     -1.495     -7.904 bp            1 LIG        0.183086
     32 H6           22.689     -1.215     -9.098 bq            1 LIG        0.174941
     33 H7           21.222     -2.551    -11.936 bs            1 LIG        0.179917
     34 H8           17.815     -1.386     -9.683 bt            1 LIG        0.182037
     35 H9           21.024      1.383    -10.256 bu            1 LIG        0.180909
     36 H10          28.849      0.501     -7.345 bv            1 LIG        0.148884
     37 H11          27.105      0.909     -7.186 bw            1 LIG        0.148884
     38 H12          28.023      1.338     -8.664 bx            1 LIG        0.148884
@<TRIPOS>BOND
        1  1  2  1
        2  1  27  1
        3  2  3  1
        4  2  6  1
        5  2  28  1
        6  3  4  1
        7  3  24  1
        8  3  25  1
        9  4  5  1
        10  4  29  1
        11  4  30  1
        12  5  6  2
        13  5  10  1
        14  6  7  1
        15  7  8  2
        16  7  20  1
        17  8  9  1
        18  8  31  1
        19  9  10  2
        20  9  32  1
        21  10  11  1
        22  11  12  1
        23  12  13  2
        24  12  19  1
        25  13  14  1
        26  13  33  1
        27  14  15  1
        28  14  16  2
        29  16  17  1
        30  16  34  1
        31  17  18  1
        32  17  19  2
        33  18  26  3
        34  19  35  1
        35  20  21  2
        36  20  22  2
        37  20  23  1
        38  23  36  1
        39  23  37  1
        40  23  38  1
@<TRIPOS>SUBSTRUCTURE
       1 LIG             1 RESIDUE    0 **** ROOT      0
