@<TRIPOS>MOLECULE
LIG
52 55
SMALL
USER_CHARGES
@<TRIPOS>ATOM
      1 C1           -4.255     -3.103     13.571 aa            1 LIG        0.064954
      2 O1           -3.874     -2.353     14.717 ab            1 LIG       -0.352194
      3 C2           -2.526     -2.106     14.805 ad            1 LIG        0.191483
      4 C3           -1.750     -2.867     15.680 ae            1 LIG       -0.223236
      5 C4           -0.386     -2.611     15.815 af            1 LIG       -0.226563
      6 C5            0.222     -1.583     15.089 ah            1 LIG        0.272243
      7 N1            1.593     -1.349     15.306 ai            1 LIG       -0.567050
      8 C6            2.545     -0.469     14.754 aj            1 LIG        0.446316
      9 N2            2.218      0.355     13.719 ak            1 LIG       -0.554907
     10 C7            3.123      1.241     13.218 an            1 LIG        0.211627
     11 C8            4.421      1.304     13.717 ao            1 LIG       -0.115970
     12 N3            4.748      0.492     14.765 ap            1 LIG        0.065539
     13 C9            5.890      0.384     15.504 aq            1 LIG       -0.163050
     14 C10           5.572     -0.509     16.518 av            1 LIG        0.031555
     15 N4            4.382     -1.054     16.392 aw            1 LIG       -0.515197
     16 C11           3.833     -0.417     15.325 ax            1 LIG        0.172829
     17 C12           2.656      2.156     12.134 ay            1 LIG        0.115427
     18 C13           3.557      2.628     11.167 az            1 LIG       -0.202940
     19 C14           3.129      3.450     10.128 bb            1 LIG       -0.176517
     20 C15           1.788      3.808     10.032 bc            1 LIG       -0.055978
     21 C16           1.328      4.679      8.900 bd            1 LIG        0.752708
     22 O2            0.173      5.054      8.719 bf            1 LIG       -0.639536
     23 N5            2.333      5.011      8.090 bg            1 LIG       -0.931010
     24 C17           0.866      3.371     10.989 bh            1 LIG        0.213112
     25 O3           -0.463      3.733     10.903 bj            1 LIG       -0.364363
     26 C18          -1.269      3.238     11.908 bk            1 LIG        0.062145
     27 C19           1.314      2.558     12.042 bl            1 LIG       -0.272079
     28 C20          -0.566     -0.826     14.211 bm            1 LIG       -0.297012
     29 C21          -1.939     -1.076     14.058 bn            1 LIG        0.202069
     30 O4           -2.699     -0.305     13.202 bo            1 LIG       -0.347606
     31 C22          -2.002      0.675     12.525 bp            1 LIG        0.063981
     32 H1           -5.328     -3.294     13.597 bq            1 LIG        0.055465
     33 H2           -3.741     -4.064     13.541 bs            1 LIG        0.055465
     34 H3           -4.032     -2.560     12.651 bt            1 LIG        0.055465
     35 H4           -2.210     -3.653     16.261 bu            1 LIG        0.151892
     36 H5            0.191     -3.210     16.503 bv            1 LIG        0.184810
     37 H6            2.025     -1.886     16.048 bw            1 LIG        0.363429
     38 H7            5.170      2.003     13.372 bx            1 LIG        0.125888
     39 H8            6.766      0.974     15.290 by            1 LIG        0.151376
     40 H9            6.209     -0.833     17.330 bz            1 LIG        0.150200
     41 H10           4.593      2.331     11.200 cb            1 LIG        0.147404
     42 H11           3.834      3.794      9.385 ci            1 LIG        0.185778
     43 H12           2.255      5.590      7.266 cj            1 LIG        0.416825
     44 H13           3.296      4.726      8.202 ck            1 LIG        0.416825
     45 H14          -2.293      3.578     11.752 cm            1 LIG        0.060772
     46 H15          -0.909      3.597     12.872 cn            1 LIG        0.060772
     47 H16          -1.241      2.149     11.892 ct            1 LIG        0.060772
     48 H17           0.605      2.213     12.781 cw            1 LIG        0.172909
     49 H18          -0.155     -0.017     13.634 da            1 LIG        0.152555
     50 H19          -2.685      1.226     11.879 db            1 LIG        0.056871
     51 H20          -1.222      0.213     11.920 dc            1 LIG        0.056871
     52 H21          -1.548      1.359     13.242 dd            1 LIG        0.056871
@<TRIPOS>BOND
        1  1  2  1
        2  1  32  1
        3  1  33  1
        4  1  34  1
        5  2  3  1
        6  3  4  2
        7  3  29  1
        8  4  5  1
        9  4  35  1
        10  5  6  2
        11  5  36  1
        12  6  7  1
        13  6  28  1
        14  7  8  1
        15  7  37  1
        16  8  9  2
        17  8  16  1
        18  9  10  1
        19  10  11  2
        20  10  17  1
        21  11  12  1
        22  11  38  1
        23  12  13  1
        24  12  16  1
        25  13  14  2
        26  13  39  1
        27  14  15  1
        28  14  40  1
        29  15  16  2
        30  17  18  2
        31  17  27  1
        32  18  19  1
        33  18  41  1
        34  19  20  2
        35  19  42  1
        36  20  21  1
        37  20  24  1
        38  21  22  2
        39  21  23  1
        40  23  43  1
        41  23  44  1
        42  24  25  1
        43  24  27  2
        44  25  26  1
        45  26  45  1
        46  26  46  1
        47  26  47  1
        48  27  48  1
        49  28  29  2
        50  28  49  1
        51  29  30  1
        52  30  31  1
        53  31  50  1
        54  31  51  1
        55  31  52  1
@<TRIPOS>SUBSTRUCTURE
       1 LIG             1 RESIDUE    0 **** ROOT      0
