@<TRIPOS>MOLECULE
LIG
47 49
SMALL
USER_CHARGES
@<TRIPOS>ATOM
      1 N1           24.544     41.579      3.120 aa            1 LIG       -0.482112
      2 C1           25.571     40.546      2.881 ab            1 LIG        0.061609
      3 C2           26.953     40.912      3.485 ad            1 LIG       -0.139063
      4 C3           27.459     42.328      3.117 ae            1 LIG        0.641494
      5 C4           26.294     43.333      3.146 af            1 LIG       -0.139063
      6 C5           24.997     42.830      2.511 ah            1 LIG        0.061609
      7 C6           19.689     40.570      5.798 ai            1 LIG       -0.064760
      8 C7           19.532     40.841      7.171 aj            1 LIG        0.064794
      9 C8           18.313     40.555      7.807 ak            1 LIG        0.106088
     10 C9           17.257     40.020      7.075 an            1 LIG       -0.196181
     11 C10          17.406     39.752      5.717 ao            1 LIG       -0.137578
     12 C11          18.616     40.021      5.085 ap            1 LIG       -0.185181
     13 C12          20.972     40.819      5.087 aq            1 LIG        0.316237
     14 N2           20.954     41.812      4.168 av            1 LIG       -0.536399
     15 C13          22.076     42.076      3.441 aw            1 LIG        0.147013
     16 C14          23.279     41.346      3.679 ax            1 LIG        0.549290
     17 N3           23.269     40.340      4.603 ay            1 LIG       -0.615414
     18 C15          22.134     40.069      5.288 az            1 LIG        0.533779
     19 Cl1          18.078     40.843      9.496 bb            1 LIG       -0.098913
     20 Cl2          20.820     41.588      8.063 bc            1 LIG       -0.096101
     21 N4           22.167     39.011      6.190 bd            1 LIG       -0.952486
     22 C16          27.956     42.251      1.661 bf            1 LIG       -0.388606
     23 N5           28.601     42.799      3.916 bg            1 LIG       -1.012868
     24 C17          21.822     43.085      2.340 bh            1 LIG        0.688590
     25 N6           22.354     42.825      1.153 bj            1 LIG       -0.954883
     26 O1           21.033     44.018      2.467 bk            1 LIG       -0.638586
     27 H1           25.258     39.592      3.299 bl            1 LIG        0.077053
     28 H2           25.653     40.377      1.807 bm            1 LIG        0.077053
     29 H3           27.677     40.161      3.163 bn            1 LIG        0.057123
     30 H4           26.896     40.797      4.570 bo            1 LIG        0.057123
     31 H5           26.544     44.257      2.630 bp            1 LIG        0.057123
     32 H6           26.082     43.621      4.176 bq            1 LIG        0.057123
     33 H7           24.275     43.620      2.676 bs            1 LIG        0.077053
     34 H8           25.105     42.711      1.431 bt            1 LIG        0.077053
     35 H9           16.319     39.795      7.560 bu            1 LIG        0.183106
     36 H10          16.589     39.321      5.156 bv            1 LIG        0.170716
     37 H11          18.719     39.791      4.034 bw            1 LIG        0.167439
     38 H12          23.038     38.515      6.354 bx            1 LIG        0.417204
     39 H13          21.340     38.789      6.721 by            1 LIG        0.417204
     40 H14          22.118     43.400      0.359 bz            1 LIG        0.423179
     41 H15          22.993     42.054      1.018 cb            1 LIG        0.423179
     42 H16          28.865     43.726      3.612 ci            1 LIG        0.465977
     43 H17          28.342     42.827      4.892 cj            1 LIG        0.465977
     44 H18          29.381     42.170      3.793 ck            1 LIG        0.465977
     45 H19          28.366     43.146      1.172 cm            1 LIG        0.110344
     46 H20          27.161     41.840      1.038 cn            1 LIG        0.110344
     47 H21          28.677     41.438      1.576 ct            1 LIG        0.110344
@<TRIPOS>BOND
        1  1  2  1
        2  1  6  1
        3  1  16  1
        4  2  3  1
        5  2  27  1
        6  2  28  1
        7  3  4  1
        8  3  29  1
        9  3  30  1
        10  4  5  1
        11  4  22  1
        12  4  23  1
        13  5  6  1
        14  5  31  1
        15  5  32  1
        16  6  33  1
        17  6  34  1
        18  7  8  2
        19  7  12  1
        20  7  13  1
        21  8  9  1
        22  8  20  1
        23  9  10  2
        24  9  19  1
        25  10  11  1
        26  10  35  1
        27  11  12  2
        28  11  36  1
        29  12  37  1
        30  13  14  2
        31  13  18  1
        32  14  15  1
        33  15  16  2
        34  15  24  1
        35  16  17  1
        36  17  18  2
        37  18  21  1
        38  21  38  1
        39  21  39  1
        40  22  45  1
        41  22  46  1
        42  22  47  1
        43  23  42  1
        44  23  43  1
        45  23  44  1
        46  24  25  1
        47  24  26  2
        48  25  40  1
        49  25  41  1
@<TRIPOS>SUBSTRUCTURE
       1 LIG             1 RESIDUE    0 **** ROOT      0
