@<TRIPOS>MOLECULE
LIG
63 65
SMALL
USER_CHARGES
@<TRIPOS>ATOM
      1 C1           24.473     31.002     48.004 aa            1 LIG       -0.289438
      2 C2           24.530     32.442     47.462 ab            1 LIG        0.226762
      3 N1           25.847     33.126     47.917 ad            1 LIG       -0.640419
      4 C3           26.558     33.824     46.727 ae            1 LIG        0.226762
      5 C4           27.968     34.313     47.098 af            1 LIG       -0.289438
      6 C5           25.704     34.057     49.151 ah            1 LIG        0.161695
      7 C6           25.020     33.369     50.341 ai            1 LIG       -0.073947
      8 C7           25.121     34.220     51.610 aj            1 LIG        0.213218
      9 O1           24.209     33.707     52.569 ak            1 LIG       -0.497884
     10 C8           24.427     33.843     53.882 an            1 LIG        0.850841
     11 O2           25.447     34.326     54.376 ao            1 LIG       -0.601922
     12 N2           23.314     33.349     54.543 ap            1 LIG       -0.500888
     13 C9           23.120     33.098     55.909 aq            1 LIG        0.210683
     14 C10          24.141     33.126     56.869 av            1 LIG       -0.211409
     15 C11          23.870     32.766     58.190 aw            1 LIG       -0.131144
     16 C12          22.588     32.361     58.557 ax            1 LIG       -0.195841
     17 C13          21.564     32.320     57.608 ay            1 LIG        0.096206
     18 C14          20.156     31.885     58.008 az            1 LIG        0.040090
     19 N3           19.864     30.472     57.694 bb            1 LIG       -0.105187
     20 N4           19.389     30.228     56.440 bc            1 LIG       -0.425685
     21 C15          19.044     29.092     55.952 bd            1 LIG        0.184681
     22 C16          19.213     27.746     56.682 bf            1 LIG       -0.052734
     23 S1           19.899     27.756     58.376 bg            1 LIG       -0.219267
     24 C17          20.183     29.532     58.686 bh            1 LIG        0.683079
     25 O3           20.647     29.822     59.792 bj            1 LIG       -0.568211
     26 C18          18.416     29.039     54.600 bk            1 LIG        0.126137
     27 C19          17.946     30.214     53.982 bl            1 LIG       -0.184567
     28 C20          17.344     30.169     52.726 bm            1 LIG       -0.193124
     29 C21          17.205     28.951     52.070 bn            1 LIG        0.170836
     30 Cl1          16.474     28.898     50.507 bo            1 LIG       -0.119336
     31 C22          17.653     27.776     52.664 bp            1 LIG       -0.193124
     32 C23          18.247     27.819     53.922 bq            1 LIG       -0.184567
     33 C24          21.833     32.706     56.291 bs            1 LIG       -0.266902
     34 H1           23.597     30.481     47.610 bt            1 LIG        0.111278
     35 H2           24.403     30.961     49.089 bu            1 LIG        0.111278
     36 H3           25.353     30.426     47.709 bv            1 LIG        0.111278
     37 H4           24.518     32.425     46.370 bw            1 LIG        0.067250
     38 H5           23.698     33.069     47.788 bx            1 LIG        0.067250
     39 H6           26.620     33.066     45.942 by            1 LIG        0.067250
     40 H7           25.900     34.632     46.400 bz            1 LIG        0.067250
     41 H8           28.506     34.632     46.205 cb            1 LIG        0.111278
     42 H9           28.557     33.528     47.573 ci            1 LIG        0.111278
     43 H10          27.942     35.173     47.769 cj            1 LIG        0.111278
     44 H11          26.722     34.326     49.428 ck            1 LIG        0.080535
     45 H12          25.169     34.948     48.814 cm            1 LIG        0.080535
     46 H13          23.968     33.204     50.112 cn            1 LIG        0.053485
     47 H14          25.467     32.394     50.532 ct            1 LIG        0.053485
     48 H15          26.150     34.216     51.975 cw            1 LIG        0.051348
     49 H16          24.858     35.257     51.397 da            1 LIG        0.051348
     50 H17          22.540     33.108     53.944 db            1 LIG        0.311654
     51 H18          25.154     33.409     56.620 dc            1 LIG        0.190357
     52 H19          24.663     32.789     58.924 dd            1 LIG        0.158851
     53 H20          22.396     32.066     59.576 de            1 LIG        0.163593
     54 H21          19.979     32.118     59.061 df            1 LIG        0.078145
     55 H22          19.435     32.517     57.489 dg            1 LIG        0.078145
     56 H23          18.247     27.243     56.752 dh            1 LIG        0.109790
     57 H24          19.877     27.100     56.107 di            1 LIG        0.109790
     58 H25          18.035     31.173     54.471 dj            1 LIG        0.167714
     59 H26          16.990     31.077     52.261 dk            1 LIG        0.173278
     60 H27          17.549     26.830     52.150 dl            1 LIG        0.173278
     61 H28          18.579     26.880     54.337 dm            1 LIG        0.167714
     62 H29          21.038     32.661     55.559 dn            1 LIG        0.138057
     63 H30          26.466     32.374     48.211 do            1 LIG        0.426275
@<TRIPOS>BOND
        1  1  2  1
        2  1  34  1
        3  1  35  1
        4  1  36  1
        5  2  3  1
        6  2  37  1
        7  2  38  1
        8  3  4  1
        9  3  6  1
        10  3  63  1
        11  4  5  1
        12  4  39  1
        13  4  40  1
        14  5  41  1
        15  5  42  1
        16  5  43  1
        17  6  7  1
        18  6  44  1
        19  6  45  1
        20  7  8  1
        21  7  46  1
        22  7  47  1
        23  8  9  1
        24  8  48  1
        25  8  49  1
        26  9  10  1
        27  10  11  2
        28  10  12  1
        29  12  13  1
        30  12  50  1
        31  13  14  2
        32  13  33  1
        33  14  15  1
        34  14  51  1
        35  15  16  2
        36  15  52  1
        37  16  17  1
        38  16  53  1
        39  17  18  1
        40  17  33  2
        41  18  19  1
        42  18  54  1
        43  18  55  1
        44  19  20  1
        45  19  24  1
        46  20  21  2
        47  21  22  1
        48  21  26  1
        49  22  23  1
        50  22  56  1
        51  22  57  1
        52  23  24  1
        53  24  25  2
        54  26  27  2
        55  26  32  1
        56  27  28  1
        57  27  58  1
        58  28  29  2
        59  28  59  1
        60  29  30  1
        61  29  31  1
        62  31  32  2
        63  31  60  1
        64  32  61  1
        65  33  62  1
@<TRIPOS>SUBSTRUCTURE
       1 LIG             1 RESIDUE    0 **** ROOT      0
