@<TRIPOS>MOLECULE
LIG
32 33
SMALL
USER_CHARGES
@<TRIPOS>ATOM
      1 C1           24.831     -0.058    -11.493 aa            1 LIG       -0.013880
      2 C2           26.023     -0.233    -10.789 ab            1 LIG       -0.235368
      3 C3           25.999     -0.774     -9.510 ad            1 LIG        0.030120
      4 C4           24.786     -1.087     -8.899 ae            1 LIG       -0.176225
      5 C5           23.601     -0.933     -9.607 af            1 LIG       -0.192707
      6 C6           23.609     -0.440    -10.917 ah            1 LIG        0.237038
      7 O1           22.482     -0.289    -11.690 ai            1 LIG       -0.296256
      8 C7           21.244     -0.578    -11.184 aj            1 LIG        0.280233
      9 C8           20.672     -1.825    -11.393 ak            1 LIG       -0.275056
     10 C9           19.414     -2.115    -10.870 an            1 LIG        0.230027
     11 C10          18.736     -1.138    -10.131 ao            1 LIG       -0.272289
     12 C11          19.284      0.117     -9.944 ap            1 LIG        0.171629
     13 Cl1          18.418      1.343     -9.077 aq            1 LIG       -0.102003
     14 C12          20.553      0.397    -10.446 av            1 LIG       -0.273248
     15 S1           27.509     -1.084     -8.633 aw            1 LIG        0.793928
     16 O2           27.222     -2.024     -7.534 ax            1 LIG       -0.490109
     17 O3           28.529     -1.419     -9.610 ay            1 LIG       -0.490109
     18 C13          27.936      0.588     -7.911 az            1 LIG        0.608910
     19 F1           27.043      0.930     -6.990 bb            1 LIG       -0.183203
     20 F2           29.125      0.395     -7.380 bc            1 LIG       -0.183203
     21 C14          24.863      0.589    -12.861 bd            1 LIG        0.331419
     22 F3           18.848     -3.316    -11.063 bf            1 LIG       -0.150788
     23 F4           28.016      1.496     -8.890 bg            1 LIG       -0.183203
     24 F5           24.972      1.898    -12.643 bh            1 LIG       -0.204979
     25 F6           25.892      0.174    -13.601 bj            1 LIG       -0.204979
     26 H1           26.974      0.048    -11.237 bk            1 LIG        0.196299
     27 H2           24.762     -1.474     -7.894 bl            1 LIG        0.198742
     28 H3           22.677     -1.228     -9.134 bm            1 LIG        0.202449
     29 H4           21.203     -2.590    -11.947 bn            1 LIG        0.197684
     30 H5           17.791     -1.407     -9.693 bo            1 LIG        0.194584
     31 H6           20.986      1.355    -10.247 bp            1 LIG        0.173670
     32 H7           23.965      0.403    -13.452 bq            1 LIG        0.080872
@<TRIPOS>BOND
        1  1  2  2
        2  1  6  1
        3  1  21  1
        4  2  3  1
        5  2  26  1
        6  3  4  2
        7  3  15  1
        8  4  5  1
        9  4  27  1
        10  5  6  2
        11  5  28  1
        12  6  7  1
        13  7  8  1
        14  8  9  2
        15  8  14  1
        16  9  10  1
        17  9  29  1
        18  10  11  2
        19  10  22  1
        20  11  12  1
        21  11  30  1
        22  12  13  1
        23  12  14  2
        24  14  31  1
        25  15  16  2
        26  15  17  2
        27  15  18  1
        28  18  19  1
        29  18  20  1
        30  18  23  1
        31  21  24  1
        32  21  25  1
        33  21  32  1
@<TRIPOS>SUBSTRUCTURE
       1 LIG             1 RESIDUE    0 **** ROOT      0
