@<TRIPOS>MOLECULE
LIG
43 45
SMALL
USER_CHARGES
@<TRIPOS>ATOM
      1 N1           24.572     41.402      2.950 aa            1 LIG       -0.494146
      2 C1           24.807     42.590      2.107 ab            1 LIG        0.062581
      3 C2           25.888     43.495      2.735 ad            1 LIG       -0.138956
      4 C3           27.184     42.708      3.017 ae            1 LIG        0.700592
      5 C4           26.888     41.407      3.800 af            1 LIG       -0.138956
      6 C5           25.779     40.576      3.117 ah            1 LIG        0.062581
      7 C6           19.694     40.528      5.518 ai            1 LIG       -0.065313
      8 C7           19.404     40.800      6.868 aj            1 LIG        0.065919
      9 C8           18.101     40.605      7.354 ak            1 LIG        0.105270
     10 C9           17.102     40.127      6.507 an            1 LIG       -0.197266
     11 C10          17.391     39.846      5.176 ao            1 LIG       -0.139158
     12 C11          18.675     40.051      4.685 ap            1 LIG       -0.184529
     13 C12          21.042     40.730      4.931 aq            1 LIG        0.317236
     14 N2           21.096     41.747      4.037 av            1 LIG       -0.519915
     15 C13          22.268     41.983      3.421 aw            1 LIG        0.113884
     16 C14          23.399     41.201      3.660 ax            1 LIG        0.531701
     17 N3           23.340     40.164      4.548 ay            1 LIG       -0.619317
     18 C15          22.171     39.944      5.201 az            1 LIG        0.523928
     19 Cl1          17.689     40.944      9.000 bb            1 LIG       -0.100633
     20 Cl2          20.636     41.387      7.939 bc            1 LIG       -0.092635
     21 N4           22.142     38.889      6.114 bd            1 LIG       -0.957050
     22 N5           28.099     43.594      3.866 bf            1 LIG       -1.076196
     23 C16          27.944     42.419      1.724 bg            1 LIG       -0.389223
     24 H1           25.050     42.274      1.094 bh            1 LIG        0.070118
     25 H2           23.912     43.185      1.955 bj            1 LIG        0.070118
     26 H3           25.486     43.946      3.644 bk            1 LIG        0.057062
     27 H4           26.086     44.338      2.067 bl            1 LIG        0.057062
     28 H5           26.573     41.623      4.816 bm            1 LIG        0.057062
     29 H6           27.786     40.797      3.904 bn            1 LIG        0.057062
     30 H7           26.087     40.212      2.138 bo            1 LIG        0.070118
     31 H8           25.558     39.671      3.688 bp            1 LIG        0.070118
     32 H9           16.097     39.983      6.877 bq            1 LIG        0.181209
     33 H10          16.618     39.479      4.520 bs            1 LIG        0.168210
     34 H11          18.877     39.830      3.646 bt            1 LIG        0.164134
     35 H12          22.240     42.834      2.765 bu            1 LIG        0.043913
     36 H13          21.297     38.691      6.625 bv            1 LIG        0.412822
     37 H14          22.986     38.351      6.293 bw            1 LIG        0.412822
     38 H15          28.978     43.120      4.016 bx            1 LIG        0.467317
     39 H16          28.272     44.463      3.356 by            1 LIG        0.467317
     40 H17          27.324     41.832      1.050 bz            1 LIG        0.111941
     41 H18          28.855     41.853      1.921 cb            1 LIG        0.111941
     42 H19          28.217     43.340      1.208 ci            1 LIG        0.111941
     43 H20          27.668     43.815      4.751 cj            1 LIG        0.467317
@<TRIPOS>BOND
        1  1  2  1
        2  1  6  1
        3  1  16  1
        4  2  3  1
        5  2  24  1
        6  2  25  1
        7  3  4  1
        8  3  26  1
        9  3  27  1
        10  4  5  1
        11  4  22  1
        12  4  23  1
        13  5  6  1
        14  5  28  1
        15  5  29  1
        16  6  30  1
        17  6  31  1
        18  7  8  2
        19  7  12  1
        20  7  13  1
        21  8  9  1
        22  8  20  1
        23  9  10  2
        24  9  19  1
        25  10  11  1
        26  10  32  1
        27  11  12  2
        28  11  33  1
        29  12  34  1
        30  13  14  2
        31  13  18  1
        32  14  15  1
        33  15  16  2
        34  15  35  1
        35  16  17  1
        36  17  18  2
        37  18  21  1
        38  21  36  1
        39  21  37  1
        40  22  38  1
        41  22  39  1
        42  22  43  1
        43  23  40  1
        44  23  41  1
        45  23  42  1
@<TRIPOS>SUBSTRUCTURE
       1 LIG             1 RESIDUE    0 **** ROOT      0
