@<TRIPOS>MOLECULE
LIG
50 54
SMALL
USER_CHARGES
@<TRIPOS>ATOM
      1 C1           -4.257     -3.105     13.568 aa            1 LIG        0.065172
      2 O1           -3.873     -2.362     14.715 ab            1 LIG       -0.353076
      3 C2           -2.525     -2.112     14.816 ad            1 LIG        0.191588
      4 C3           -1.748     -2.870     15.681 ae            1 LIG       -0.222124
      5 C4           -0.391     -2.611     15.814 af            1 LIG       -0.223302
      6 C5            0.221     -1.585     15.088 ah            1 LIG        0.272212
      7 N1            1.603     -1.361     15.328 ai            1 LIG       -0.565828
      8 C6            2.531     -0.440     14.767 aj            1 LIG        0.446727
      9 N2            2.167      0.384     13.737 ak            1 LIG       -0.554720
     10 C7            3.108      1.238     13.222 an            1 LIG        0.211363
     11 C8            4.412      1.279     13.703 ao            1 LIG       -0.119179
     12 N3            4.743      0.489     14.758 ap            1 LIG        0.064348
     13 C9            5.897      0.381     15.486 aq            1 LIG       -0.163528
     14 C10           5.594     -0.533     16.523 av            1 LIG        0.031374
     15 N4            4.380     -1.046     16.368 aw            1 LIG       -0.513415
     16 C11           3.836     -0.391     15.329 ax            1 LIG        0.172580
     17 C12           2.648      2.154     12.123 ay            1 LIG        0.106618
     18 C13           3.565      2.637     11.163 az            1 LIG       -0.192011
     19 C14           3.133      3.463     10.124 bb            1 LIG       -0.208140
     20 C15           1.796      3.816     10.040 bc            1 LIG        0.204351
     21 O2            1.400      4.640      9.016 bd            1 LIG       -0.386705
     22 C16           0.025      4.467      8.600 bf            1 LIG        0.175482
     23 C17          -1.031      4.322      9.754 bg            1 LIG        0.627535
     24 O3           -2.209      4.659      9.669 bh            1 LIG       -0.602254
     25 N5           -0.463      3.754     10.850 bj            1 LIG       -0.483664
     26 C18           0.876      3.378     10.973 bk            1 LIG        0.131015
     27 C19           1.294      2.551     12.026 bl            1 LIG       -0.268049
     28 C20          -0.554     -0.819     14.190 bm            1 LIG       -0.300390
     29 C21          -1.941     -1.087     14.060 bn            1 LIG        0.202117
     30 O4           -2.748     -0.349     13.207 bo            1 LIG       -0.347967
     31 C22          -2.226      0.648     12.350 bp            1 LIG        0.060113
     32 H1           -5.336     -3.253     13.586 bq            1 LIG        0.055307
     33 H2           -3.787     -4.090     13.558 bs            1 LIG        0.055307
     34 H3           -4.011     -2.583     12.643 bt            1 LIG        0.055307
     35 H4           -2.201     -3.660     16.262 bu            1 LIG        0.155512
     36 H5            0.199     -3.203     16.501 bv            1 LIG        0.144784
     37 H6            1.994     -1.943     16.056 bw            1 LIG        0.364557
     38 H7            5.174      1.956     13.339 bx            1 LIG        0.120105
     39 H8            6.781      0.964     15.277 by            1 LIG        0.149907
     40 H9            6.235     -0.812     17.346 bz            1 LIG        0.150283
     41 H10           4.605      2.351     11.216 cb            1 LIG        0.171712
     42 H11           3.834      3.821      9.387 ci            1 LIG        0.171535
     43 H12          -0.288      5.277      7.939 cj            1 LIG        0.053322
     44 H13          -0.036      3.543      8.019 ck            1 LIG        0.053322
     45 H14          -1.093      3.572     11.615 cm            1 LIG        0.320821
     46 H15           0.581      2.214     12.766 cn            1 LIG        0.149612
     47 H16          -0.111     -0.027     13.622 ct            1 LIG        0.196654
     48 H17          -3.047      1.073     11.770 cw            1 LIG        0.057904
     49 H18          -1.504      0.234     11.648 da            1 LIG        0.057904
     50 H19          -1.777      1.454     12.928 db            1 LIG        0.057904
@<TRIPOS>BOND
        1  1  2  1
        2  1  32  1
        3  1  33  1
        4  1  34  1
        5  2  3  1
        6  3  4  2
        7  3  29  1
        8  4  5  1
        9  4  35  1
        10  5  6  2
        11  5  36  1
        12  6  7  1
        13  6  28  1
        14  7  8  1
        15  7  37  1
        16  8  9  2
        17  8  16  1
        18  9  10  1
        19  10  11  2
        20  10  17  1
        21  11  12  1
        22  11  38  1
        23  12  13  1
        24  12  16  1
        25  13  14  2
        26  13  39  1
        27  14  15  1
        28  14  40  1
        29  15  16  2
        30  17  18  2
        31  17  27  1
        32  18  19  1
        33  18  41  1
        34  19  20  2
        35  19  42  1
        36  20  21  1
        37  20  26  1
        38  21  22  1
        39  22  23  1
        40  22  43  1
        41  22  44  1
        42  23  24  2
        43  23  25  1
        44  25  26  1
        45  25  45  1
        46  26  27  2
        47  27  46  1
        48  28  29  2
        49  28  47  1
        50  29  30  1
        51  30  31  1
        52  31  48  1
        53  31  49  1
        54  31  50  1
@<TRIPOS>SUBSTRUCTURE
       1 LIG             1 RESIDUE    0 **** ROOT      0
