@<TRIPOS>MOLECULE
LIG
46 48
SMALL
USER_CHARGES
@<TRIPOS>ATOM
      1 N1           24.591     41.441      2.963 aa            1 LIG       -0.496735
      2 C1           25.788     40.584      3.095 ab            1 LIG        0.054428
      3 C2           26.883     41.419      3.782 ad            1 LIG       -0.140299
      4 C3           27.204     42.730      3.021 ae            1 LIG        0.803809
      5 C4           25.891     43.498      2.729 af            1 LIG       -0.140299
      6 C5           24.815     42.607      2.086 ah            1 LIG        0.054428
      7 C6           19.687     40.535      5.538 ai            1 LIG        0.007628
      8 C7           19.401     40.826      6.876 aj            1 LIG        0.053397
      9 C8           18.105     40.608      7.374 ak            1 LIG        0.091502
     10 C9           17.109     40.086      6.543 an            1 LIG       -0.197699
     11 C10          17.403     39.763      5.223 ao            1 LIG       -0.139919
     12 C11          18.680     40.017      4.723 ap            1 LIG       -0.177506
     13 C12          21.027     40.772      4.948 aq            1 LIG       -0.123096
     14 C13          21.166     41.811      4.071 av            1 LIG        0.248750
     15 N2           22.339     42.062      3.438 aw            1 LIG       -0.634395
     16 C14          23.405     41.218      3.648 ax            1 LIG        0.788244
     17 N3           23.342     40.199      4.548 ay            1 LIG       -0.656314
     18 C15          22.157     39.955      5.186 az            1 LIG        0.616582
     19 C16          17.729     41.015      8.787 bb            1 LIG       -0.245994
     20 Cl1          20.617     41.495      7.916 bc            1 LIG       -0.149531
     21 N4           22.094     38.887      6.095 bd            1 LIG       -0.940005
     22 N5           28.057     43.610      3.932 bf            1 LIG       -1.347184
     23 C17          27.998     42.451      1.726 bg            1 LIG       -0.390333
     24 H1           26.079     40.261      2.098 bh            1 LIG        0.071964
     25 H2           25.537     39.682      3.675 bj            1 LIG        0.071964
     26 H3           26.530     41.665      4.780 bk            1 LIG        0.061303
     27 H4           27.778     40.808      3.896 bl            1 LIG        0.061303
     28 H5           25.475     43.907      3.648 bm            1 LIG        0.061303
     29 H6           26.082     44.355      2.081 bn            1 LIG        0.061303
     30 H7           25.124     42.242      1.110 bo            1 LIG        0.071964
     31 H8           23.867     43.155      1.950 bp            1 LIG        0.071964
     32 H9           16.094     39.954      6.908 bq            1 LIG        0.159256
     33 H10          16.633     39.365      4.578 bs            1 LIG        0.155205
     34 H11          18.882     39.760      3.691 bt            1 LIG        0.150040
     35 H12          28.925     43.164      4.175 bu            1 LIG        0.521884
     36 H13          28.947     41.949      1.917 bv            1 LIG        0.110012
     37 H14          28.212     43.358      1.160 bw            1 LIG        0.110012
     38 H15          27.447     41.799      1.048 bx            1 LIG        0.110012
     39 H16          28.255     44.486      3.458 by            1 LIG        0.521884
     40 H17          22.952     38.389      6.306 bz            1 LIG        0.415364
     41 H18          20.327     42.479      3.847 cb            1 LIG        0.061120
     42 H19          21.239     38.707      6.603 ci            1 LIG        0.415364
     43 H20          16.661     40.881      8.952 cj            1 LIG        0.091813
     44 H21          17.957     42.073      8.936 ck            1 LIG        0.091813
     45 H22          18.296     40.442      9.525 cm            1 LIG        0.091813
     46 H23          27.560     43.822      4.784 cn            1 LIG        0.521884
@<TRIPOS>BOND
        1  1  2  1
        2  1  6  1
        3  1  16  1
        4  2  3  1
        5  2  24  1
        6  2  25  1
        7  3  4  1
        8  3  26  1
        9  3  27  1
        10  4  5  1
        11  4  22  1
        12  4  23  1
        13  5  6  1
        14  5  28  1
        15  5  29  1
        16  6  30  1
        17  6  31  1
        18  7  8  2
        19  7  12  1
        20  7  13  1
        21  8  9  1
        22  8  20  1
        23  9  10  2
        24  9  19  1
        25  10  11  1
        26  10  32  1
        27  11  12  2
        28  11  33  1
        29  12  34  1
        30  13  14  2
        31  13  18  1
        32  14  15  1
        33  14  41  1
        34  15  16  2
        35  16  17  1
        36  17  18  2
        37  18  21  1
        38  19  43  1
        39  19  44  1
        40  19  45  1
        41  21  40  1
        42  21  42  1
        43  22  35  1
        44  22  39  1
        45  22  46  1
        46  23  36  1
        47  23  37  1
        48  23  38  1
@<TRIPOS>SUBSTRUCTURE
       1 LIG             1 RESIDUE    0 **** ROOT      0
