@<TRIPOS>MOLECULE
LIG
62 67
SMALL
USER_CHARGES
@<TRIPOS>ATOM
      1 C1           92.568     47.346    266.483 aa            1 LIG       -0.309835
      2 C2           91.618     48.345    266.666 ab            1 LIG        0.279737
      3 C3           91.979     49.540    267.276 ad            1 LIG       -0.244187
      4 C4           93.294     49.796    267.679 ae            1 LIG       -0.001629
      5 C5           93.897     47.540    266.914 af            1 LIG        0.293565
      6 C6           94.276     48.781    267.510 ah            1 LIG        0.244152
      7 N1           95.564     48.967    267.933 ai            1 LIG       -0.487616
      8 C7           96.450     47.959    267.740 aj            1 LIG        0.163215
      9 C8           96.061     46.745    267.183 ak            1 LIG        0.170695
     10 N2           94.795     46.528    266.765 an            1 LIG       -0.493392
     11 C9           93.598     51.096    268.322 ao            1 LIG        0.066731
     12 N3           90.287     48.151    266.296 ap            1 LIG       -0.550370
     13 C10          94.571     51.945    267.787 aq            1 LIG       -0.183007
     14 C11          94.862     53.178    268.368 av            1 LIG       -0.195936
     15 C12          92.893     51.438    269.476 aw            1 LIG       -0.237014
     16 C13          93.196     52.658    270.071 ax            1 LIG        0.062657
     17 C14          94.150     53.560    269.510 ay            1 LIG        0.068917
     18 C15          94.150     54.727    270.345 az            1 LIG       -0.221210
     19 C16          93.285     54.457    271.377 bb            1 LIG       -0.138461
     20 N4           92.722     53.223    271.234 bc            1 LIG        0.034637
     21 C17          89.717     47.354    265.285 bd            1 LIG        0.154731
     22 C18          88.415     46.817    265.392 bf            1 LIG       -0.053597
     23 C19          87.901     46.108    264.292 bg            1 LIG       -0.279819
     24 C20          88.680     45.943    263.157 bh            1 LIG        0.236667
     25 N5           89.931     46.439    263.041 bj            1 LIG       -0.480676
     26 C21          90.425     47.128    264.099 bk            1 LIG        0.178036
     27 C22          87.560     46.968    266.630 bl            1 LIG        0.700818
     28 O1           87.670     47.932    267.388 bm            1 LIG       -0.642642
     29 N6           86.667     45.986    266.817 bn            1 LIG       -0.548270
     30 C23          85.596     45.950    267.790 bo            1 LIG        0.110200
     31 C24          91.804     52.624    272.186 bp            1 LIG       -0.189601
     32 C25          85.870     44.984    268.950 bq            1 LIG       -0.069774
     33 C26          84.650     44.821    269.873 bs            1 LIG        0.222669
     34 O2           83.489     44.469    269.124 bt            1 LIG       -0.475833
     35 C27          83.125     45.424    268.129 bu            1 LIG        0.222669
     36 C28          84.258     45.620    267.114 bv            1 LIG       -0.069774
     37 H1           92.277     46.400    266.058 bw            1 LIG        0.162739
     38 H2           91.224     50.294    267.438 bx            1 LIG        0.157705
     39 H3           97.470     48.160    268.027 by            1 LIG        0.050364
     40 H4           96.766     45.945    267.012 bz            1 LIG        0.054461
     41 H5           89.595     48.593    266.890 cb            1 LIG        0.381321
     42 H6           95.096     51.655    266.894 ci            1 LIG        0.136027
     43 H7           95.615     53.825    267.935 cj            1 LIG        0.137752
     44 H8           92.148     50.784    269.904 ck            1 LIG        0.161819
     45 H9           94.739     55.611    270.276 cm            1 LIG        0.141127
     46 H10          93.046     55.037    272.231 cn            1 LIG        0.145993
     47 H11          86.905     45.685    264.302 ct            1 LIG        0.141226
     48 H12          88.277     45.391    262.325 cw            1 LIG        0.059848
     49 H13          91.414     47.523    263.980 da            1 LIG        0.077448
     50 H14          86.731     45.166    266.219 db            1 LIG        0.296381
     51 H15          85.469     46.944    268.235 dc            1 LIG        0.049485
     52 H16          91.621     53.306    273.015 dd            1 LIG        0.095408
     53 H17          92.247     51.709    272.577 de            1 LIG        0.095408
     54 H18          90.867     52.393    271.685 df            1 LIG        0.095408
     55 H19          86.743     45.305    269.523 dg            1 LIG        0.035224
     56 H20          86.106     44.000    268.538 dh            1 LIG        0.035224
     57 H21          84.459     45.764    270.391 di            1 LIG        0.020432
     58 H22          84.839     44.069    270.637 dj            1 LIG        0.020432
     59 H23          82.909     46.383    268.606 dk            1 LIG        0.020432
     60 H24          82.214     45.097    267.629 dl            1 LIG        0.020432
     61 H25          83.994     46.381    266.380 dm            1 LIG        0.035224
     62 H26          84.372     44.684    266.561 dn            1 LIG        0.035224
@<TRIPOS>BOND
        1  1  2  2
        2  1  5  1
        3  1  37  1
        4  2  3  1
        5  2  12  1
        6  3  4  2
        7  3  38  1
        8  4  6  1
        9  4  11  1
        10  5  6  2
        11  5  10  1
        12  6  7  1
        13  7  8  2
        14  8  9  1
        15  8  39  1
        16  9  10  2
        17  9  40  1
        18  11  13  2
        19  11  15  1
        20  12  21  1
        21  12  41  1
        22  13  14  1
        23  13  42  1
        24  14  17  2
        25  14  43  1
        26  15  16  2
        27  15  44  1
        28  16  17  1
        29  16  20  1
        30  17  18  1
        31  18  19  2
        32  18  45  1
        33  19  20  1
        34  19  46  1
        35  20  31  1
        36  21  22  1
        37  21  26  2
        38  22  23  2
        39  22  27  1
        40  23  24  1
        41  23  47  1
        42  24  25  2
        43  24  48  1
        44  25  26  1
        45  26  49  1
        46  27  28  2
        47  27  29  1
        48  29  30  1
        49  29  50  1
        50  30  32  1
        51  30  36  1
        52  30  51  1
        53  31  52  1
        54  31  53  1
        55  31  54  1
        56  32  33  1
        57  32  55  1
        58  32  56  1
        59  33  34  1
        60  33  57  1
        61  33  58  1
        62  34  35  1
        63  35  36  1
        64  35  59  1
        65  35  60  1
        66  36  61  1
        67  36  62  1
@<TRIPOS>SUBSTRUCTURE
       1 LIG             1 RESIDUE    0 **** ROOT      0
