@<TRIPOS>MOLECULE
LIG
41 43
SMALL
USER_CHARGES
@<TRIPOS>ATOM
      1 N1           24.556     41.394      2.936 aa            1 LIG       -0.488547
      2 C1           24.822     42.588      2.105 ab            1 LIG        0.060984
      3 C2           25.898     43.491      2.736 ad            1 LIG       -0.134872
      4 C3           27.194     42.711      3.021 ae            1 LIG        0.679829
      5 C4           26.890     41.407      3.788 af            1 LIG       -0.134872
      6 C5           25.774     40.580      3.115 ah            1 LIG        0.060984
      7 C6           19.690     40.520      5.527 ai            1 LIG       -0.070376
      8 C7           19.382     40.840      6.859 aj            1 LIG        0.067801
      9 C8           18.081     40.630      7.340 ak            1 LIG        0.105693
     10 C9           17.103     40.098      6.500 an            1 LIG       -0.194140
     11 C10          17.407     39.790      5.179 ao            1 LIG       -0.136573
     12 C11          18.688     40.018      4.693 ap            1 LIG       -0.177809
     13 C12          21.024     40.742      4.944 aq            1 LIG        0.343137
     14 N2           21.073     41.767      4.064 av            1 LIG       -0.514587
     15 C13          22.244     41.999      3.441 aw            1 LIG        0.139657
     16 C14          23.384     41.215      3.667 ax            1 LIG        0.530062
     17 N3           23.321     40.178      4.558 ay            1 LIG       -0.575088
     18 C15          22.151     39.955      5.209 az            1 LIG        0.167380
     19 Cl1          17.647     41.043      8.961 bb            1 LIG       -0.093606
     20 Cl2          20.576     41.566      7.889 bc            1 LIG       -0.080907
     21 N4           28.075     43.600      3.905 bd            1 LIG       -1.093435
     22 C16          27.974     42.434      1.729 bf            1 LIG       -0.388185
     23 H1           25.058     42.302      1.079 bg            1 LIG        0.078395
     24 H2           23.944     43.208      1.978 bh            1 LIG        0.078395
     25 H3           25.479     43.954      3.631 bj            1 LIG        0.045985
     26 H4           26.090     44.330      2.064 bk            1 LIG        0.045985
     27 H5           26.578     41.610      4.806 bl            1 LIG        0.045985
     28 H6           27.788     40.798      3.887 bm            1 LIG        0.045985
     29 H7           26.106     40.179      2.157 bn            1 LIG        0.078395
     30 H8           25.560     39.697      3.715 bo            1 LIG        0.078395
     31 H9           16.095     39.952      6.863 bp            1 LIG        0.183979
     32 H10          16.653     39.388      4.522 bq            1 LIG        0.171712
     33 H11          18.907     39.768      3.663 bs            1 LIG        0.161770
     34 H12          28.939     43.120      4.116 bt            1 LIG        0.480999
     35 H13          27.415     41.769      1.071 bu            1 LIG        0.114028
     36 H14          28.934     41.960      1.943 bv            1 LIG        0.114028
     37 H15          28.165     43.356      1.179 bw            1 LIG        0.114028
     38 H16          28.283     44.455      3.389 bx            1 LIG        0.480999
     39 H17          22.135     39.127      5.903 by            1 LIG        0.070130
     40 H18          22.203     42.827      2.758 bz            1 LIG        0.057279
     41 H19          27.604     43.851      4.763 cb            1 LIG        0.480999
@<TRIPOS>BOND
        1  1  2  1
        2  1  6  1
        3  1  16  1
        4  2  3  1
        5  2  23  1
        6  2  24  1
        7  3  4  1
        8  3  25  1
        9  3  26  1
        10  4  5  1
        11  4  21  1
        12  4  22  1
        13  5  6  1
        14  5  27  1
        15  5  28  1
        16  6  29  1
        17  6  30  1
        18  7  8  2
        19  7  12  1
        20  7  13  1
        21  8  9  1
        22  8  20  1
        23  9  10  2
        24  9  19  1
        25  10  11  1
        26  10  31  1
        27  11  12  2
        28  11  32  1
        29  12  33  1
        30  13  14  2
        31  13  18  1
        32  14  15  1
        33  15  16  2
        34  15  40  1
        35  16  17  1
        36  17  18  2
        37  18  39  1
        38  21  34  1
        39  21  38  1
        40  21  41  1
        41  22  35  1
        42  22  36  1
        43  22  37  1
@<TRIPOS>SUBSTRUCTURE
       1 LIG             1 RESIDUE    0 **** ROOT      0
