@<TRIPOS>MOLECULE
LIG
50 54
SMALL
USER_CHARGES
@<TRIPOS>ATOM
      1 C1           -4.257     -3.106     13.567 aa            1 LIG        0.065816
      2 O1           -3.873     -2.361     14.713 ab            1 LIG       -0.354758
      3 C2           -2.525     -2.110     14.815 ad            1 LIG        0.190549
      4 C3           -1.752     -2.869     15.682 ae            1 LIG       -0.222201
      5 C4           -0.392     -2.609     15.819 af            1 LIG       -0.223986
      6 C5            0.219     -1.585     15.093 ah            1 LIG        0.272770
      7 N1            1.602     -1.359     15.333 ai            1 LIG       -0.567792
      8 C6            2.527     -0.436     14.772 aj            1 LIG        0.445900
      9 N2            2.159      0.395     13.742 ak            1 LIG       -0.556818
     10 C7            3.105      1.238     13.219 an            1 LIG        0.211071
     11 C8            4.409      1.280     13.701 ao            1 LIG       -0.119095
     12 N3            4.739      0.491     14.758 ap            1 LIG        0.062881
     13 C9            5.897      0.385     15.484 aq            1 LIG       -0.163932
     14 C10           5.597     -0.538     16.518 av            1 LIG        0.030783
     15 N4            4.383     -1.046     16.366 aw            1 LIG       -0.516858
     16 C11           3.833     -0.389     15.327 ax            1 LIG        0.172220
     17 C12           2.657      2.147     12.111 ay            1 LIG        0.103239
     18 C13           3.590      2.639     11.175 az            1 LIG       -0.187648
     19 C14           3.235      3.501     10.133 bb            1 LIG       -0.203565
     20 C15           1.892      3.838     10.055 bc            1 LIG        0.059372
     21 C16           0.917      3.342     10.973 bd            1 LIG        0.060032
     22 C17          -0.304      3.932     10.529 bf            1 LIG       -0.014640
     23 N5           -0.099      4.605      9.441 bg            1 LIG       -0.416382
     24 N6            1.196      4.645      9.198 bh            1 LIG        0.200183
     25 C18           1.704      5.475      8.096 bj            1 LIG       -0.199956
     26 C19           1.302      2.494     12.008 bk            1 LIG       -0.248043
     27 C20          -0.554     -0.816     14.194 bl            1 LIG       -0.299958
     28 C21          -1.940     -1.084     14.062 bm            1 LIG        0.201864
     29 O2           -2.743     -0.342     13.212 bn            1 LIG       -0.348535
     30 C22          -2.213      0.637     12.336 bo            1 LIG        0.061952
     31 H1           -5.338     -3.248     13.582 bp            1 LIG        0.054528
     32 H2           -3.791     -4.092     13.561 bq            1 LIG        0.054528
     33 H3           -4.004     -2.587     12.641 bs            1 LIG        0.054528
     34 H4           -2.210     -3.658     16.263 bt            1 LIG        0.154510
     35 H5            0.196     -3.200     16.507 bu            1 LIG        0.143971
     36 H6            1.997     -1.948     16.059 bv            1 LIG        0.363676
     37 H7            5.171      1.951     13.335 bw            1 LIG        0.119899
     38 H8            6.778      0.973     15.277 bx            1 LIG        0.148217
     39 H9            6.240     -0.823     17.341 by            1 LIG        0.147633
     40 H10           4.615      2.332     11.255 bz            1 LIG        0.156521
     41 H11           3.965      3.870      9.422 cb            1 LIG        0.140430
     42 H12          -1.280      3.849     10.957 ci            1 LIG        0.147087
     43 H13           2.199      4.839      7.382 cj            1 LIG        0.104087
     44 H14           2.413      6.216      8.489 ck            1 LIG        0.104087
     45 H15           0.933      5.947      7.475 cm            1 LIG        0.104087
     46 H16           0.577      2.123     12.718 cn            1 LIG        0.139135
     47 H17          -0.114     -0.022     13.624 ct            1 LIG        0.196458
     48 H18          -3.036      1.062     11.758 cw            1 LIG        0.057384
     49 H19          -1.505      0.199     11.632 da            1 LIG        0.057384
     50 H20          -1.749      1.444     12.899 db            1 LIG        0.057384
@<TRIPOS>BOND
        1  1  2  1
        2  1  31  1
        3  1  32  1
        4  1  33  1
        5  2  3  1
        6  3  4  2
        7  3  28  1
        8  4  5  1
        9  4  34  1
        10  5  6  2
        11  5  35  1
        12  6  7  1
        13  6  27  1
        14  7  8  1
        15  7  36  1
        16  8  9  2
        17  8  16  1
        18  9  10  1
        19  10  11  2
        20  10  17  1
        21  11  12  1
        22  11  37  1
        23  12  13  1
        24  12  16  1
        25  13  14  2
        26  13  38  1
        27  14  15  1
        28  14  39  1
        29  15  16  2
        30  17  18  2
        31  17  26  1
        32  18  19  1
        33  18  40  1
        34  19  20  2
        35  19  41  1
        36  20  21  1
        37  20  24  1
        38  21  22  1
        39  21  26  2
        40  22  23  2
        41  22  42  1
        42  23  24  1
        43  24  25  1
        44  25  43  1
        45  25  44  1
        46  25  45  1
        47  26  46  1
        48  27  28  2
        49  27  47  1
        50  28  29  1
        51  29  30  1
        52  30  48  1
        53  30  49  1
        54  30  50  1
@<TRIPOS>SUBSTRUCTURE
       1 LIG             1 RESIDUE    0 **** ROOT      0
