@<TRIPOS>MOLECULE
LIG
44 48
SMALL
USER_CHARGES
@<TRIPOS>ATOM
      1 C1           92.562     47.343    266.481 aa            1 LIG       -0.300116
      2 C2           91.608     48.338    266.679 ab            1 LIG        0.284519
      3 C3           91.968     49.536    267.289 ad            1 LIG       -0.239936
      4 C4           93.283     49.804    267.684 ae            1 LIG       -0.003192
      5 C5           93.891     47.543    266.905 af            1 LIG        0.297772
      6 C6           94.269     48.783    267.505 ah            1 LIG        0.247851
      7 N1           95.558     48.968    267.925 ai            1 LIG       -0.483452
      8 C7           96.446     47.959    267.734 aj            1 LIG        0.168548
      9 C8           96.055     46.751    267.166 ak            1 LIG        0.173588
     10 N2           94.796     46.536    266.746 an            1 LIG       -0.481713
     11 C9           93.600     51.108    268.320 ao            1 LIG        0.086174
     12 N3           90.273     48.133    266.318 ap            1 LIG       -0.562125
     13 C10          94.580     51.951    267.784 aq            1 LIG       -0.160106
     14 C11          94.879     53.185    268.364 av            1 LIG       -0.194373
     15 C12          92.912     51.486    269.482 aw            1 LIG       -0.232337
     16 C13          93.222     52.705    270.092 ax            1 LIG        0.222554
     17 C14          94.173     53.572    269.515 ay            1 LIG        0.223038
     18 N4           94.245     54.725    270.233 az            1 LIG       -0.276263
     19 O1           93.356     54.493    271.287 bb            1 LIG        0.109948
     20 N5           92.719     53.248    271.232 bc            1 LIG       -0.277430
     21 C15          89.716     47.350    265.291 bd            1 LIG        0.149826
     22 C16          88.425     46.803    265.399 bf            1 LIG       -0.024730
     23 C17          87.889     46.097    264.313 bg            1 LIG       -0.271618
     24 C18          88.662     45.939    263.165 bh            1 LIG        0.240473
     25 N6           89.916     46.436    263.044 bj            1 LIG       -0.466297
     26 C19          90.418     47.129    264.096 bk            1 LIG        0.177177
     27 S1           87.480     46.889    266.925 bl            1 LIG        0.922008
     28 C20          88.388     45.669    268.038 bm            1 LIG       -0.370924
     29 O2           86.140     46.359    266.666 bn            1 LIG       -0.547004
     30 O3           87.642     48.239    267.480 bo            1 LIG       -0.547004
     31 H1           92.285     46.395    266.042 bp            1 LIG        0.172883
     32 H2           91.205     50.286    267.457 bq            1 LIG        0.162905
     33 H3           97.463     48.138    268.045 bs            1 LIG        0.062698
     34 H4           96.770     45.949    267.013 bt            1 LIG        0.065020
     35 H5           89.594     48.626    266.889 bu            1 LIG        0.382915
     36 H6           95.108     51.648    266.888 bv            1 LIG        0.177288
     37 H7           95.624     53.835    267.932 bw            1 LIG        0.166065
     38 H8           92.155     50.847    269.907 bx            1 LIG        0.160706
     39 H9           86.898     45.663    264.353 by            1 LIG        0.173937
     40 H10          88.273     45.395    262.318 bz            1 LIG        0.080410
     41 H11          91.405     47.533    263.948 cb            1 LIG        0.084305
     42 H12          87.883     45.624    269.000 ci            1 LIG        0.148671
     43 H13          89.419     45.998    268.166 cj            1 LIG        0.148671
     44 H14          88.353     44.680    267.588 ck            1 LIG        0.148671
@<TRIPOS>BOND
        1  1  2  2
        2  1  5  1
        3  1  31  1
        4  2  3  1
        5  2  12  1
        6  3  4  2
        7  3  32  1
        8  4  6  1
        9  4  11  1
        10  5  6  2
        11  5  10  1
        12  6  7  1
        13  7  8  2
        14  8  9  1
        15  8  33  1
        16  9  10  2
        17  9  34  1
        18  11  13  1
        19  11  15  2
        20  12  21  1
        21  12  35  1
        22  13  14  2
        23  13  36  1
        24  14  17  1
        25  14  37  1
        26  15  16  1
        27  15  38  1
        28  16  17  1
        29  16  20  2
        30  17  18  2
        31  18  19  1
        32  19  20  1
        33  21  22  2
        34  21  26  1
        35  22  23  1
        36  22  27  1
        37  23  24  2
        38  23  39  1
        39  24  25  1
        40  24  40  1
        41  25  26  2
        42  26  41  1
        43  27  28  1
        44  27  29  2
        45  27  30  2
        46  28  42  1
        47  28  43  1
        48  28  44  1
@<TRIPOS>SUBSTRUCTURE
       1 LIG             1 RESIDUE    0 **** ROOT      0
