@<TRIPOS>MOLECULE
LIG
65 68
SMALL
USER_CHARGES
@<TRIPOS>ATOM
      1 C1           15.825     31.372     51.389 aa            1 LIG        0.067539
      2 O1           16.634     31.398     52.561 ab            1 LIG       -0.360321
      3 C2           17.160     30.211     53.033 ad            1 LIG        0.269424
      4 C3           17.041     28.971     52.386 ae            1 LIG       -0.204232
      5 C4           17.589     27.824     52.955 af            1 LIG       -0.133890
      6 C5           18.251     27.896     54.180 ah            1 LIG       -0.198859
      7 C6           18.395     29.122     54.847 ai            1 LIG        0.104014
      8 C7           17.848     30.270     54.246 aj            1 LIG       -0.275132
      9 C8           19.049     29.233     56.175 ak            1 LIG        0.218109
     10 N1           19.429     30.367     56.672 an            1 LIG       -0.402806
     11 N2           19.969     30.482     57.956 ao            1 LIG        0.040819
     12 C9           20.333     31.846     58.379 ap            1 LIG        0.028294
     13 C10          21.721     32.272     57.909 aq            1 LIG        0.094228
     14 C11          22.796     32.265     58.794 av            1 LIG       -0.186447
     15 C12          24.052     32.695     58.379 aw            1 LIG       -0.134183
     16 C13          24.247     33.098     57.060 ax            1 LIG       -0.166716
     17 C14          23.196     33.079     56.128 ay            1 LIG       -0.027701
     18 C15          21.924     32.694     56.593 az            1 LIG       -0.224198
     19 C16          23.433     33.380     54.677 bb            1 LIG        0.603779
     20 N3           24.680     33.779     54.296 bc            1 LIG       -0.553496
     21 C17          24.903     33.913     52.962 bd            1 LIG        0.215265
     22 C18          23.913     33.653     51.998 bf            1 LIG        0.084553
     23 O2           24.059     33.762     50.631 bg            1 LIG       -0.395837
     24 C19          25.368     33.894     50.096 bh            1 LIG        0.224981
     25 C20          25.291     34.184     48.590 bj            1 LIG       -0.082776
     26 C21          24.443     33.204     47.759 bk            1 LIG        0.223355
     27 N4           25.047     31.780     47.807 bl            1 LIG        0.080287
     28 C22          24.295     30.849     48.781 bm            1 LIG       -0.253423
     29 C23          25.164     31.133     46.410 bn            1 LIG       -0.253423
     30 C24          22.666     33.276     52.494 bo            1 LIG        0.215265
     31 N5           22.407     33.135     53.816 bp            1 LIG       -0.553496
     32 C25          20.200     29.436     58.824 bq            1 LIG        0.560610
     33 O3           20.647     29.526     59.970 bs            1 LIG       -0.626610
     34 C26          19.828     28.160     58.237 bt            1 LIG       -0.195318
     35 C27          19.282     28.058     57.003 bu            1 LIG       -0.097575
     36 H1           15.461     32.377     51.175 bv            1 LIG        0.056093
     37 H2           14.954     30.729     51.520 bw            1 LIG        0.056093
     38 H3           16.392     31.038     50.520 bx            1 LIG        0.056093
     39 H4           16.524     28.877     51.444 by            1 LIG        0.163887
     40 H5           17.500     26.873     52.450 bz            1 LIG        0.154344
     41 H6           18.651     26.978     54.583 cb            1 LIG        0.161013
     42 H7           17.923     31.231     54.733 ci            1 LIG        0.147335
     43 H8           20.254     31.974     59.461 cj            1 LIG        0.084053
     44 H9           19.600     32.548     57.977 ck            1 LIG        0.084053
     45 H10          22.655     31.926     59.810 cm            1 LIG        0.155280
     46 H11          24.882     32.707     59.070 cn            1 LIG        0.153387
     47 H12          25.244     33.396     56.768 ct            1 LIG        0.162373
     48 H13          21.082     32.675     55.916 cw            1 LIG        0.199041
     49 H14          25.901     34.223     52.693 da            1 LIG        0.065482
     50 H15          25.954     32.995     50.296 db            1 LIG        0.010366
     51 H16          25.872     34.726     50.576 dc            1 LIG        0.010366
     52 H17          26.302     34.234     48.183 dd            1 LIG        0.077782
     53 H18          24.876     35.184     48.458 de            1 LIG        0.077782
     54 H19          24.435     33.517     46.713 df            1 LIG        0.013534
     55 H20          23.405     33.145     48.094 dg            1 LIG        0.013534
     56 H21          24.322     31.296     49.775 dh            1 LIG        0.145144
     57 H22          24.829     29.900     48.776 di            1 LIG        0.145144
     58 H23          23.271     30.732     48.422 dj            1 LIG        0.145144
     59 H24          25.778     31.792     45.794 dk            1 LIG        0.145144
     60 H25          24.158     31.024     46.001 dl            1 LIG        0.145144
     61 H26          25.651     30.165     46.535 dm            1 LIG        0.145144
     62 H27          21.848     33.083     51.817 dn            1 LIG        0.065482
     63 H28          19.987     27.268     58.825 do            1 LIG        0.134688
     64 H29          19.020     27.067     56.666 dp            1 LIG        0.115687
     65 H30          25.997     31.866     48.164 dq            1 LIG        0.207307
@<TRIPOS>BOND
        1  1  2  1
        2  1  36  1
        3  1  37  1
        4  1  38  1
        5  2  3  1
        6  3  4  2
        7  3  8  1
        8  4  5  1
        9  4  39  1
        10  5  6  2
        11  5  40  1
        12  6  7  1
        13  6  41  1
        14  7  8  2
        15  7  9  1
        16  8  42  1
        17  9  10  2
        18  9  35  1
        19  10  11  1
        20  11  12  1
        21  11  32  1
        22  12  13  1
        23  12  43  1
        24  12  44  1
        25  13  14  2
        26  13  18  1
        27  14  15  1
        28  14  45  1
        29  15  16  2
        30  15  46  1
        31  16  17  1
        32  16  47  1
        33  17  18  2
        34  17  19  1
        35  18  48  1
        36  19  20  2
        37  19  31  1
        38  20  21  1
        39  21  22  2
        40  21  49  1
        41  22  23  1
        42  22  30  1
        43  23  24  1
        44  24  25  1
        45  24  50  1
        46  24  51  1
        47  25  26  1
        48  25  52  1
        49  25  53  1
        50  26  27  1
        51  26  54  1
        52  26  55  1
        53  27  28  1
        54  27  29  1
        55  27  65  1
        56  28  56  1
        57  28  57  1
        58  28  58  1
        59  29  59  1
        60  29  60  1
        61  29  61  1
        62  30  31  2
        63  30  62  1
        64  32  33  2
        65  32  34  1
        66  34  35  2
        67  34  63  1
        68  35  64  1
@<TRIPOS>SUBSTRUCTURE
       1 LIG             1 RESIDUE    0 **** ROOT      0
