@<TRIPOS>MOLECULE
LIG
37 39
SMALL
USER_CHARGES
@<TRIPOS>ATOM
      1 O1           27.582      1.563    -11.255 aa            1 LIG       -0.677930
      2 C1           27.147      0.286    -11.676 ab            1 LIG        0.193275
      3 C2           26.509      0.364    -13.064 ad            1 LIG        0.290785
      4 C3           25.026      0.608    -12.833 ae            1 LIG       -0.019796
      5 C4           24.797     -0.060    -11.495 af            1 LIG       -0.038139
      6 C5           26.008     -0.234    -10.812 ah            1 LIG       -0.042525
      7 C6           26.009     -0.779     -9.517 ai            1 LIG       -0.021835
      8 C7           24.794     -1.087     -8.903 aj            1 LIG       -0.183348
      9 C8           23.594     -0.931     -9.595 ak            1 LIG       -0.204268
     10 C9           23.591     -0.427    -10.899 an            1 LIG        0.222833
     11 O2           22.473     -0.300    -11.697 ao            1 LIG       -0.312487
     12 C10          21.221     -0.556    -11.209 ap            1 LIG        0.187293
     13 C11          20.581     -1.770    -11.464 aq            1 LIG        0.187524
     14 N1           19.329     -2.049    -11.024 av            1 LIG       -0.457080
     15 C12          18.687     -1.088    -10.316 aw            1 LIG        0.199863
     16 C13          19.244      0.161    -10.030 ax            1 LIG        0.103955
     17 C14          18.523      1.170     -9.278 ay            1 LIG        0.215956
     18 C15          20.538      0.414    -10.476 az            1 LIG       -0.235956
     19 S1           27.518     -1.077     -8.597 bb            1 LIG        0.795735
     20 O3           27.220     -2.029     -7.525 bc            1 LIG       -0.488318
     21 O4           28.574     -1.415     -9.555 bd            1 LIG       -0.488318
     22 C16          27.910      0.602     -7.825 bf            1 LIG        0.609334
     23 F1           27.060      1.300    -13.839 bg            1 LIG       -0.198661
     24 F2           26.640     -0.814    -13.673 bh            1 LIG       -0.198661
     25 N2           17.956      1.975     -8.669 bj            1 LIG       -0.365879
     26 F3           29.173      0.550     -7.460 bk            1 LIG       -0.184005
     27 F4           27.756      1.577     -8.696 bl            1 LIG       -0.184005
     28 F5           27.110      0.793     -6.778 bm            1 LIG       -0.184005
     29 H1           28.381      1.822    -11.748 bn            1 LIG        0.498271
     30 H2           27.978     -0.421    -11.703 bo            1 LIG        0.099008
     31 H3           24.412      0.183    -13.624 bp            1 LIG        0.075681
     32 H4           24.808      1.677    -12.781 bq            1 LIG        0.075681
     33 H5           24.776     -1.468     -7.894 bs            1 LIG        0.207862
     34 H6           22.678     -1.238     -9.119 bt            1 LIG        0.179929
     35 H7           21.064     -2.546    -12.035 bu            1 LIG        0.093857
     36 H8           17.708     -1.363     -9.979 bv            1 LIG        0.086270
     37 H9           21.011      1.356    -10.260 bw            1 LIG        0.162105
@<TRIPOS>BOND
        1  1  2  1
        2  1  29  1
        3  2  3  1
        4  2  6  1
        5  2  30  1
        6  3  4  1
        7  3  23  1
        8  3  24  1
        9  4  5  1
        10  4  31  1
        11  4  32  1
        12  5  6  2
        13  5  10  1
        14  6  7  1
        15  7  8  2
        16  7  19  1
        17  8  9  1
        18  8  33  1
        19  9  10  2
        20  9  34  1
        21  10  11  1
        22  11  12  1
        23  12  13  2
        24  12  18  1
        25  13  14  1
        26  13  35  1
        27  14  15  2
        28  15  16  1
        29  15  36  1
        30  16  17  1
        31  16  18  2
        32  17  25  3
        33  18  37  1
        34  19  20  2
        35  19  21  2
        36  19  22  1
        37  22  26  1
        38  22  27  1
        39  22  28  1
@<TRIPOS>SUBSTRUCTURE
       1 LIG             1 RESIDUE    0 **** ROOT      0
