@<TRIPOS>MOLECULE
LIG
48 52
SMALL
USER_CHARGES
@<TRIPOS>ATOM
      1 N1           90.325     48.216    265.911 aa            1 LIG       -0.542519
      2 C1           91.641     48.348    266.368 ab            1 LIG        0.280726
      3 C2           91.942     49.521    267.059 ad            1 LIG       -0.245440
      4 C3           93.192     49.758    267.627 ae            1 LIG       -0.002157
      5 C4           94.209     48.763    267.494 af            1 LIG        0.243346
      6 C5           93.892     47.541    266.814 ah            1 LIG        0.293157
      7 C6           92.602     47.349    266.250 ai            1 LIG       -0.311235
      8 C7           93.389     51.008    268.403 aj            1 LIG        0.066896
      9 C8           94.386     51.919    268.063 ak            1 LIG       -0.183088
     10 C9           94.580     53.096    268.784 an            1 LIG       -0.196244
     11 C10          93.759     53.362    269.887 ao            1 LIG        0.068624
     12 C11          92.750     52.413    270.236 ap            1 LIG        0.062805
     13 C12          92.544     51.247    269.491 aq            1 LIG       -0.235488
     14 C13          93.659     54.430    270.832 av            1 LIG       -0.221275
     15 C14          92.661     54.099    271.719 aw            1 LIG       -0.138551
     16 N2           92.111     52.888    271.370 ax            1 LIG        0.034621
     17 N3           94.831     46.554    266.695 ay            1 LIG       -0.496486
     18 C15          96.058     46.772    267.228 az            1 LIG        0.170524
     19 C16          96.369     47.968    267.871 bb            1 LIG        0.162295
     20 N4           95.453     48.949    268.027 bc            1 LIG       -0.489383
     21 C17          91.001     52.252    272.035 bd            1 LIG       -0.189515
     22 C18          89.629     47.272    265.131 bf            1 LIG        0.176608
     23 C19          90.066     46.727    263.910 bg            1 LIG        0.469009
     24 N5           89.290     45.858    263.189 bh            1 LIG       -0.530609
     25 C20          88.068     45.525    263.666 bj            1 LIG        0.238853
     26 C21          87.565     46.038    264.854 bk            1 LIG       -0.235911
     27 C22          88.354     46.926    265.583 bl            1 LIG       -0.195106
     28 O1           91.281     47.091    263.352 bm            1 LIG       -0.448022
     29 C23          91.572     46.728    261.995 bn            1 LIG        0.065400
     30 H1           89.705     48.899    266.331 bo            1 LIG        0.352196
     31 H2           91.174     50.275    267.173 bp            1 LIG        0.150853
     32 H3           92.370     46.431    265.735 bq            1 LIG        0.162166
     33 H4           95.027     51.713    267.218 bs            1 LIG        0.133055
     34 H5           95.351     53.791    268.489 bt            1 LIG        0.136830
     35 H6           91.773     50.540    269.764 bu            1 LIG        0.159350
     36 H7           94.257     55.329    270.871 bv            1 LIG        0.140869
     37 H8           92.275     54.639    272.572 bw            1 LIG        0.146017
     38 H9           96.784     45.984    267.133 bx            1 LIG        0.052927
     39 H10          97.343     48.143    268.297 by            1 LIG        0.049102
     40 H11          91.221     51.197    272.196 bz            1 LIG        0.095449
     41 H12          90.097     52.350    271.435 cb            1 LIG        0.095449
     42 H13          90.859     52.726    273.010 ci            1 LIG        0.095449
     43 H14          87.494     44.811    263.083 cj            1 LIG        0.061101
     44 H15          86.589     45.738    265.218 ck            1 LIG        0.147896
     45 H16          87.967     47.330    266.509 cm            1 LIG        0.159577
     46 H17          92.541     47.123    261.676 cn            1 LIG        0.063293
     47 H18          90.837     47.130    261.299 ct            1 LIG        0.063293
     48 H19          91.593     45.648    261.851 cw            1 LIG        0.063293
@<TRIPOS>BOND
        1  1  2  1
        2  1  22  1
        3  1  30  1
        4  2  3  2
        5  2  7  1
        6  3  4  1
        7  3  31  1
        8  4  5  2
        9  4  8  1
        10  5  20  1
        11  5  6  1
        12  6  7  2
        13  6  17  1
        14  7  32  1
        15  8  9  2
        16  8  13  1
        17  9  10  1
        18  9  33  1
        19  10  11  2
        20  10  34  1
        21  11  14  1
        22  11  12  1
        23  12  13  2
        24  12  16  1
        25  13  35  1
        26  14  15  2
        27  14  36  1
        28  15  16  1
        29  15  37  1
        30  16  21  1
        31  17  18  2
        32  18  19  1
        33  18  38  1
        34  19  20  2
        35  19  39  1
        36  21  40  1
        37  21  41  1
        38  21  42  1
        39  22  23  2
        40  22  27  1
        41  23  24  1
        42  23  28  1
        43  24  25  2
        44  25  26  1
        45  25  43  1
        46  26  27  2
        47  26  44  1
        48  27  45  1
        49  28  29  1
        50  29  46  1
        51  29  47  1
        52  29  48  1
@<TRIPOS>SUBSTRUCTURE
       1 LIG             1 RESIDUE    0 **** ROOT      0
