@<TRIPOS>MOLECULE
LIG
51 54
SMALL
USER_CHARGES
@<TRIPOS>ATOM
      1 C1           15.285     -4.639      7.538 aa            1 LIG       -0.073833
      2 N1           14.214     -3.964      6.684 ab            1 LIG       -0.152780
      3 C2           14.723     -3.057      5.557 ad            1 LIG        0.037231
      4 C3           14.903     -3.779      4.193 ae            1 LIG        0.248622
      5 C4           15.067     -5.323      4.238 af            1 LIG       -0.067751
      6 C5           15.211     -5.910      2.827 ah            1 LIG       -0.059050
      7 C6           14.096     -5.406      1.882 ai            1 LIG        0.045872
      8 C7           12.704     -6.058      2.130 aj            1 LIG        0.125740
      9 C8           12.750     -7.575      2.031 ak            1 LIG        0.069430
     10 C9           13.248     -8.193      0.874 an            1 LIG       -0.192813
     11 C10          13.327     -9.577      0.802 ao            1 LIG       -0.203159
     12 C11          12.906    -10.327      1.899 ap            1 LIG        0.225199
     13 F1           12.978    -11.658      1.912 aq            1 LIG       -0.159512
     14 C12          12.400     -9.729      3.035 av            1 LIG       -0.203159
     15 C13          12.320     -8.352      3.108 aw            1 LIG       -0.192813
     16 N2           11.699     -5.507      1.225 ax            1 LIG       -0.546371
     17 C14          11.787     -4.177      0.781 ay            1 LIG        0.238185
     18 C15          10.777     -3.711     -0.057 az            1 LIG       -0.209181
     19 C16          10.818     -2.411     -0.547 bb            1 LIG       -0.178829
     20 C17          11.860     -1.556     -0.186 bc            1 LIG       -0.083719
     21 C18          11.909     -0.139     -0.746 bd            1 LIG        0.689760
     22 F2           12.532     -0.161     -1.925 bf            1 LIG       -0.226235
     23 F3           10.677      0.333     -0.924 bg            1 LIG       -0.226235
     24 F4           12.568      0.689      0.065 bh            1 LIG       -0.226235
     25 C19          12.855     -2.021      0.681 bj            1 LIG       -0.242204
     26 C20          12.861     -3.342      1.141 bk            1 LIG       -0.028444
     27 C21          14.009     -3.866      1.989 bl            1 LIG        0.266112
     28 O1           13.793     -3.467      3.343 bm            1 LIG       -0.493023
     29 H1           14.695     -5.204      8.263 bn            1 LIG        0.122069
     30 H2           15.883     -3.849      8.007 bo            1 LIG        0.122069
     31 H3           15.880     -5.296      6.902 bp            1 LIG        0.122069
     32 H4           13.618     -4.671      6.282 bq            1 LIG        0.260817
     33 H5           13.931     -2.305      5.503 bs            1 LIG        0.082303
     34 H6           15.644     -2.586      5.914 bt            1 LIG        0.082303
     35 H7           15.809     -3.345      3.755 bu            1 LIG        0.036732
     36 H8           15.951     -5.602      4.808 bv            1 LIG        0.040398
     37 H9           14.209     -5.782      4.732 bw            1 LIG        0.040398
     38 H10          16.182     -5.624      2.417 bx            1 LIG        0.041907
     39 H11          15.232     -6.998      2.882 by            1 LIG        0.041907
     40 H12          14.410     -5.624      0.861 bz            1 LIG        0.016147
     41 H13          12.367     -5.823      3.141 cb            1 LIG        0.044261
     42 H14          13.578     -7.595      0.035 ci            1 LIG        0.156366
     43 H15          13.709    -10.060     -0.088 cj            1 LIG        0.177038
     44 H16          12.095    -10.360      3.860 ck            1 LIG        0.177038
     45 H17          11.942     -7.899      4.014 cm            1 LIG        0.156366
     46 H18          10.777     -5.885      1.407 cn            1 LIG        0.342357
     47 H19           9.954     -4.355     -0.333 ct            1 LIG        0.166509
     48 H20          10.033     -2.065     -1.204 cw            1 LIG        0.179259
     49 H21          13.665     -1.365      0.969 da            1 LIG        0.144134
     50 H22          14.942     -3.422      1.633 db            1 LIG        0.005931
     51 H23          13.678     -3.390      7.316 dc            1 LIG        0.260817
@<TRIPOS>BOND
        1  1  2  1
        2  1  29  1
        3  1  30  1
        4  1  31  1
        5  2  3  1
        6  2  32  1
        7  2  51  1
        8  3  4  1
        9  3  33  1
        10  3  34  1
        11  4  5  1
        12  4  28  1
        13  4  35  1
        14  5  6  1
        15  5  36  1
        16  5  37  1
        17  6  7  1
        18  6  38  1
        19  6  39  1
        20  7  8  1
        21  7  27  1
        22  7  40  1
        23  8  9  1
        24  8  16  1
        25  8  41  1
        26  9  10  2
        27  9  15  1
        28  10  11  1
        29  10  42  1
        30  11  12  2
        31  11  43  1
        32  12  13  1
        33  12  14  1
        34  14  15  2
        35  14  44  1
        36  15  45  1
        37  16  17  1
        38  16  46  1
        39  17  18  2
        40  17  26  1
        41  18  19  1
        42  18  47  1
        43  19  20  2
        44  19  48  1
        45  20  21  1
        46  20  25  1
        47  21  22  1
        48  21  23  1
        49  21  24  1
        50  25  26  2
        51  25  49  1
        52  26  27  1
        53  27  28  1
        54  27  50  1
@<TRIPOS>SUBSTRUCTURE
       1 LIG             1 RESIDUE    0 **** ROOT      0
