@<TRIPOS>MOLECULE
LIG
62 65
SMALL
USER_CHARGES
@<TRIPOS>ATOM
      1 F1           17.282     31.075     52.111 aa            1 LIG       -0.156951
      2 C1           17.566     29.958     52.818 ab            1 LIG        0.226342
      3 C2           17.220     28.707     52.317 ad            1 LIG       -0.273960
      4 C3           17.505     27.561     53.057 ae            1 LIG        0.226342
      5 F2           17.149     26.348     52.577 af            1 LIG       -0.156951
      6 C4           18.137     27.664     54.296 ah            1 LIG       -0.266423
      7 C5           18.480     28.920     54.829 ai            1 LIG        0.116493
      8 C6           18.193     30.063     54.056 aj            1 LIG       -0.266423
      9 C7           19.091     29.087     56.175 ak            1 LIG        0.214594
     10 N1           19.448     30.244     56.638 an            1 LIG       -0.388598
     11 N2           19.987     30.415     57.917 ao            1 LIG        0.043353
     12 C8           20.352     31.799     58.281 ap            1 LIG        0.025837
     13 C9           21.704     32.248     57.725 aq            1 LIG        0.094919
     14 C10          22.836     32.259     58.546 av            1 LIG       -0.198406
     15 C11          24.061     32.695     58.044 aw            1 LIG       -0.133274
     16 C12          24.171     33.113     56.718 ax            1 LIG       -0.210138
     17 C13          23.046     33.101     55.877 ay            1 LIG        0.209866
     18 N3           23.072     33.439     54.511 az            1 LIG       -0.502463
     19 C14          24.150     33.767     53.696 bb            1 LIG        0.849341
     20 O1           25.323     33.927     54.032 bc            1 LIG       -0.587110
     21 O2           23.692     33.923     52.436 bd            1 LIG       -0.499008
     22 C15          24.555     34.324     51.371 bf            1 LIG        0.212132
     23 C16          24.960     33.121     50.506 bg            1 LIG       -0.073167
     24 C17          23.770     32.474     49.777 bh            1 LIG        0.030054
     25 N4           24.247     31.275     48.923 bj            1 LIG       -0.125475
     26 C18          24.983     31.734     47.641 bk            1 LIG        0.001368
     27 C19          25.400     30.489     46.837 bl            1 LIG        0.203333
     28 O3           24.273     29.666     46.550 bm            1 LIG       -0.445854
     29 C20          23.584     29.185     47.700 bn            1 LIG        0.203333
     30 C21          23.060     30.355     48.556 bo            1 LIG        0.001368
     31 C22          21.815     32.684     56.399 bp            1 LIG       -0.270877
     32 C23          20.212     29.404     58.827 bq            1 LIG        0.559249
     33 O4           20.647     29.534     59.974 bs            1 LIG       -0.610980
     34 C24          19.846     28.104     58.291 bt            1 LIG       -0.192772
     35 C25          19.315     27.949     57.056 bu            1 LIG       -0.097696
     36 H1           16.723     28.625     51.364 bv            1 LIG        0.194072
     37 H2           18.329     26.738     54.820 bw            1 LIG        0.184580
     38 H3           18.437     31.051     54.413 bx            1 LIG        0.184580
     39 H4           20.335     31.955     59.363 by            1 LIG        0.087203
     40 H5           19.578     32.474     57.908 bz            1 LIG        0.087203
     41 H6           22.768     31.928     59.573 cb            1 LIG        0.155283
     42 H7           24.937     32.705     58.679 ci            1 LIG        0.156518
     43 H8           25.141     33.433     56.373 cj            1 LIG        0.139572
     44 H9           22.181     33.402     54.039 ck            1 LIG        0.310385
     45 H10          25.447     34.831     51.743 cm            1 LIG        0.055564
     46 H11          24.033     35.056     50.755 cn            1 LIG        0.055564
     47 H12          25.448     32.378     51.133 ct            1 LIG        0.054259
     48 H13          25.712     33.463     49.797 cw            1 LIG        0.054259
     49 H14          23.244     33.159     49.110 da            1 LIG        0.094683
     50 H15          23.063     32.071     50.503 db            1 LIG        0.094683
     51 H16          25.848     32.326     47.931 dc            1 LIG        0.095127
     52 H17          24.287     32.358     47.076 dd            1 LIG        0.095127
     53 H18          26.148     29.918     47.388 de            1 LIG        0.061197
     54 H19          25.865     30.783     45.896 df            1 LIG        0.061197
     55 H20          24.247     28.539     48.281 dg            1 LIG        0.061197
     56 H21          22.753     28.558     47.373 dh            1 LIG        0.061197
     57 H22          22.600     30.014     49.482 di            1 LIG        0.095127
     58 H23          22.347     30.968     48.001 dj            1 LIG        0.095127
     59 H24          20.938     32.669     55.767 dk            1 LIG        0.217539
     60 H25          20.000     27.241     58.919 dl            1 LIG        0.139627
     61 H26          19.069     26.939     56.761 dm            1 LIG        0.121987
     62 H27          24.897     30.738     49.478 dn            1 LIG        0.225744
@<TRIPOS>BOND
        1  1  2  1
        2  2  3  2
        3  2  8  1
        4  3  4  1
        5  3  36  1
        6  4  5  1
        7  4  6  2
        8  6  7  1
        9  6  37  1
        10  7  8  2
        11  7  9  1
        12  8  38  1
        13  9  10  2
        14  9  35  1
        15  10  11  1
        16  11  12  1
        17  11  32  1
        18  12  13  1
        19  12  39  1
        20  12  40  1
        21  13  14  2
        22  13  31  1
        23  14  15  1
        24  14  41  1
        25  15  16  2
        26  15  42  1
        27  16  17  1
        28  16  43  1
        29  17  18  1
        30  17  31  2
        31  18  19  1
        32  18  44  1
        33  19  20  2
        34  19  21  1
        35  21  22  1
        36  22  23  1
        37  22  45  1
        38  22  46  1
        39  23  24  1
        40  23  47  1
        41  23  48  1
        42  24  25  1
        43  24  49  1
        44  24  50  1
        45  25  26  1
        46  25  30  1
        47  25  62  1
        48  26  27  1
        49  26  51  1
        50  26  52  1
        51  27  28  1
        52  27  53  1
        53  27  54  1
        54  28  29  1
        55  29  30  1
        56  29  55  1
        57  29  56  1
        58  30  57  1
        59  30  58  1
        60  31  59  1
        61  32  33  2
        62  32  34  1
        63  34  35  2
        64  34  60  1
        65  35  61  1
@<TRIPOS>SUBSTRUCTURE
       1 LIG             1 RESIDUE    0 **** ROOT      0
