@<TRIPOS>MOLECULE
LIG
47 51
SMALL
USER_CHARGES
@<TRIPOS>ATOM
      1 C1           93.100     49.722    267.716 aa            1 LIG        0.000528
      2 C2           92.589     47.275    266.390 ab            1 LIG       -0.307544
      3 C3           91.568     48.205    266.576 ad            1 LIG        0.282272
      4 C4           91.830     49.403    267.230 ae            1 LIG       -0.242199
      5 C5           93.888     47.540    266.882 af            1 LIG        0.295431
      6 C6           94.160     48.780    267.541 ah            1 LIG        0.245792
      7 N1           95.415     49.035    268.028 ai            1 LIG       -0.478900
      8 C7           96.371     48.090    267.854 aj            1 LIG        0.166161
      9 C8           96.091     46.881    267.228 ak            1 LIG        0.172298
     10 N2           94.860     46.597    266.739 an            1 LIG       -0.488237
     11 C9           93.285     50.978    268.486 ao            1 LIG        0.070480
     12 C10          94.245     51.920    268.104 ap            1 LIG       -0.180201
     13 C11          94.459     53.094    268.828 aq            1 LIG       -0.197371
     14 C12          92.507     51.188    269.630 av            1 LIG       -0.236168
     15 N3           90.249     47.943    266.197 aw            1 LIG       -0.562056
     16 C13          89.694     47.185    265.158 ax            1 LIG        0.149897
     17 C14          90.384     46.993    263.956 ay            1 LIG        0.177374
     18 N4           89.860     46.332    262.893 az            1 LIG       -0.466178
     19 C15          88.607     45.832    263.022 bb            1 LIG        0.239220
     20 C16          87.845     45.966    264.184 bc            1 LIG       -0.272694
     21 C17          88.393     46.663    265.268 bd            1 LIG       -0.025334
     22 S1           87.464     46.826    266.798 bf            1 LIG        0.920468
     23 O1           87.617     48.219    267.228 bg            1 LIG       -0.548741
     24 O2           86.128     46.282    266.537 bh            1 LIG       -0.548741
     25 C18          88.290     45.714    268.073 bj            1 LIG       -0.370645
     26 C19          92.712     52.345    270.387 bk            1 LIG        0.224868
     27 C20          93.674     53.301    269.967 bl            1 LIG        0.073175
     28 S2           93.662     54.647    271.087 bm            1 LIG       -0.112649
     29 C21          92.485     53.775    272.014 bn            1 LIG        0.432520
     30 N5           92.062     52.644    271.540 bo            1 LIG       -0.495329
     31 N6           92.062     54.327    273.173 bp            1 LIG       -0.847541
     32 H1           92.377     46.327    265.919 bq            1 LIG        0.167071
     33 H2           91.017     50.102    267.377 bs            1 LIG        0.160098
     34 H3           97.358     48.319    268.229 bt            1 LIG        0.059972
     35 H4           96.856     46.128    267.098 bu            1 LIG        0.060195
     36 H5           94.842     51.736    267.220 bv            1 LIG        0.146799
     37 H6           95.204     53.813    268.514 bw            1 LIG        0.146957
     38 H7           91.775     50.460    269.947 bx            1 LIG        0.189356
     39 H8           89.543     48.341    266.807 by            1 LIG        0.378780
     40 H9           91.379     47.386    263.827 bz            1 LIG        0.090875
     41 H10          88.211     45.294    262.174 cb            1 LIG        0.077832
     42 H11          86.859     45.527    264.227 ci            1 LIG        0.170773
     43 H12          87.706     45.762    268.992 cj            1 LIG        0.147624
     44 H13          89.298     46.080    268.266 ck            1 LIG        0.147624
     45 H14          88.305     44.695    267.696 cm            1 LIG        0.147624
     46 H15          92.222     55.323    273.326 cn            1 LIG        0.419232
     47 H16          91.285     53.929    273.685 ct            1 LIG        0.419232
@<TRIPOS>BOND
        1  1  4  2
        2  1  6  1
        3  1  11  1
        4  2  3  2
        5  2  5  1
        6  2  32  1
        7  3  4  1
        8  3  15  1
        9  4  33  1
        10  5  6  2
        11  5  10  1
        12  6  7  1
        13  7  8  2
        14  8  9  1
        15  8  34  1
        16  9  10  2
        17  9  35  1
        18  11  12  2
        19  11  14  1
        20  12  13  1
        21  12  36  1
        22  13  27  2
        23  13  37  1
        24  14  26  2
        25  14  38  1
        26  15  16  1
        27  15  39  1
        28  16  17  2
        29  16  21  1
        30  17  18  1
        31  17  40  1
        32  18  19  2
        33  19  20  1
        34  19  41  1
        35  20  21  2
        36  20  42  1
        37  21  22  1
        38  22  23  2
        39  22  24  2
        40  22  25  1
        41  25  43  1
        42  25  44  1
        43  25  45  1
        44  26  27  1
        45  26  30  1
        46  27  28  1
        47  28  29  1
        48  29  30  2
        49  29  31  1
        50  31  46  1
        51  31  47  1
@<TRIPOS>SUBSTRUCTURE
       1 LIG             1 RESIDUE    0 **** ROOT      0
