@<TRIPOS>MOLECULE
LIG
53 56
SMALL
USER_CHARGES
@<TRIPOS>ATOM
      1 C1           -6.386     12.361    -12.003 aa            1 LIG        0.271621
      2 C2           -6.521     11.800    -10.717 ab            1 LIG       -0.277059
      3 C3           -7.699     10.580    -13.038 ad            1 LIG       -0.209646
      4 C4           -6.963     11.778    -13.103 ae            1 LIG       -0.209542
      5 C5           -7.824     10.020    -11.752 af            1 LIG        0.056468
      6 C6           -7.256     10.621    -10.596 ah            1 LIG        0.055255
      7 C7           -7.627      9.750     -9.507 ai            1 LIG        0.094289
      8 N1           -8.306      8.749     -9.982 aj            1 LIG       -0.434057
      9 N2           -8.433      8.878    -11.292 ak            1 LIG       -0.032176
     10 C8           -7.335      9.882     -8.020 an            1 LIG        0.034936
     11 N3           -5.620     13.537    -12.210 ao            1 LIG       -0.606760
     12 C9           -5.973     10.483     -7.732 ap            1 LIG        0.090556
     13 C10          -5.861     11.752     -7.166 aq            1 LIG       -0.194754
     14 C11          -4.595     12.299     -6.907 av            1 LIG       -0.192735
     15 C12          -3.443     11.581     -7.215 aw            1 LIG        0.107649
     16 C13          -3.557     10.311     -7.790 ax            1 LIG       -0.192735
     17 C14          -4.825      9.766     -8.048 ay            1 LIG       -0.194754
     18 C15          -2.093     12.156     -6.944 az            1 LIG        0.036907
     19 C16          -1.734     13.420     -6.459 bb            1 LIG       -0.195053
     20 N4           -0.406     13.458     -6.411 bc            1 LIG        0.219532
     21 N5            0.179     12.349     -6.787 bd            1 LIG       -0.448580
     22 C17          -0.795     11.539     -7.151 bf            1 LIG       -0.022744
     23 C18           0.420     14.577     -6.007 bg            1 LIG       -0.201490
     24 C19          -4.689     13.895    -11.105 bh            1 LIG        0.093358
     25 C20          -3.782     15.117    -11.399 bj            1 LIG        0.053702
     26 N6           -2.331     14.958    -11.253 bk            1 LIG       -0.537807
     27 C21          -1.810     14.433    -10.132 bl            1 LIG        0.737549
     28 O1           -2.502     14.044     -9.208 bm            1 LIG       -0.627461
     29 C22          -0.287     14.349    -10.036 bn            1 LIG       -0.337294
     30 H1           -6.045     12.249     -9.838 bo            1 LIG        0.148925
     31 H2           -8.125     10.107    -13.912 bp            1 LIG        0.129091
     32 H3           -6.819     12.240    -14.056 bq            1 LIG        0.134265
     33 H4           -8.925      8.169    -11.845 bs            1 LIG        0.273658
     34 H5           -8.089     10.540     -7.586 bt            1 LIG        0.032446
     35 H6           -7.426      8.909     -7.500 bu            1 LIG        0.032446
     36 H7           -5.350     13.742    -13.171 bv            1 LIG        0.354645
     37 H8           -6.754     12.321     -6.928 bw            1 LIG        0.134020
     38 H9           -4.511     13.285     -6.462 bx            1 LIG        0.138991
     39 H10          -2.670      9.754     -8.034 by            1 LIG        0.138991
     40 H11          -4.899      8.787     -8.499 bz            1 LIG        0.134020
     41 H12          -2.319     14.273     -6.170 cb            1 LIG        0.145660
     42 H13          -0.595     10.561     -7.543 ci            1 LIG        0.167606
     43 H14          -0.198     15.434     -5.733 cj            1 LIG        0.101186
     44 H15           1.077     14.859     -6.824 ck            1 LIG        0.101186
     45 H16           1.024     14.277     -5.167 cm            1 LIG        0.101186
     46 H17          -4.084     13.022    -10.924 cn            1 LIG        0.037725
     47 H18          -5.151     14.014    -10.118 ct            1 LIG        0.037725
     48 H19          -4.143     15.963    -10.806 cw            1 LIG        0.061524
     49 H20          -3.912     15.419    -12.392 da            1 LIG        0.061524
     50 H21          -1.718     15.324    -11.987 db            1 LIG        0.294630
     51 H22           0.161     14.806    -10.907 dc            1 LIG        0.100459
     52 H23           0.054     13.310     -9.961 dd            1 LIG        0.100459
     53 H24           0.077     14.891     -9.154 de            1 LIG        0.100459
@<TRIPOS>BOND
        1  1  2  2
        2  1  4  1
        3  1  11  1
        4  2  6  1
        5  2  30  1
        6  3  4  2
        7  3  5  1
        8  3  31  1
        9  4  32  1
        10  5  6  2
        11  5  9  1
        12  6  7  1
        13  7  8  2
        14  7  10  1
        15  8  9  1
        16  9  33  1
        17  10  12  1
        18  10  34  1
        19  10  35  1
        20  11  24  1
        21  11  36  1
        22  12  13  2
        23  12  17  1
        24  13  14  1
        25  13  37  1
        26  14  15  2
        27  14  38  1
        28  15  16  1
        29  15  18  1
        30  16  17  2
        31  16  39  1
        32  17  40  1
        33  18  19  2
        34  18  22  1
        35  19  20  1
        36  19  41  1
        37  20  21  1
        38  20  23  1
        39  21  22  2
        40  22  42  1
        41  23  43  1
        42  23  44  1
        43  23  45  1
        44  24  25  1
        45  24  46  1
        46  24  47  1
        47  25  26  1
        48  25  48  1
        49  25  49  1
        50  26  27  1
        51  26  50  1
        52  27  28  2
        53  27  29  1
        54  29  51  1
        55  29  52  1
        56  29  53  1
@<TRIPOS>SUBSTRUCTURE
       1 LIG             1 RESIDUE    0 **** ROOT      0
