@<TRIPOS>MOLECULE
LIG
36 37
SMALL
USER_CHARGES
@<TRIPOS>ATOM
      1 C1           27.374      0.202    -11.526 aa            1 LIG        0.249425
      2 C2           24.817     -0.073    -11.540 ab            1 LIG       -0.076778
      3 C3           26.069     -0.236    -10.855 ad            1 LIG       -0.039444
      4 C4           26.043     -0.776     -9.549 ae            1 LIG       -0.018971
      5 C5           24.832     -1.088     -8.940 af            1 LIG       -0.181744
      6 C6           23.627     -0.935     -9.616 ah            1 LIG       -0.204175
      7 C7           23.623     -0.443    -10.923 ai            1 LIG        0.217613
      8 O1           22.460     -0.299    -11.666 aj            1 LIG       -0.314636
      9 C8           21.231     -0.585    -11.156 ak            1 LIG        0.275985
     10 C9           20.654     -1.831    -11.375 an            1 LIG       -0.279138
     11 C10          19.387     -2.111    -10.859 ao            1 LIG        0.230072
     12 C11          18.702     -1.133    -10.131 ap            1 LIG       -0.273191
     13 C12          19.262      0.120     -9.938 aq            1 LIG        0.169364
     14 Cl1          18.401      1.349     -9.078 av            1 LIG       -0.100839
     15 C13          20.532      0.399    -10.445 aw            1 LIG       -0.279796
     16 S1           27.541     -1.087     -8.579 ax            1 LIG        0.923626
     17 O2           27.152     -2.010     -7.500 ay            1 LIG       -0.538951
     18 C14          27.932      0.586     -7.804 az            1 LIG       -0.371668
     19 C15          24.749      0.586    -12.907 bb            1 LIG        0.331088
     20 F1           18.820     -3.308    -11.070 bc            1 LIG       -0.148573
     21 O3           28.643     -1.463     -9.435 bd            1 LIG       -0.538951
     22 O4           27.884      1.407    -10.988 bf            1 LIG       -0.724084
     23 F2           25.051      1.865    -12.695 bg            1 LIG       -0.211011
     24 F3           25.544      0.062    -13.838 bh            1 LIG       -0.211011
     25 H1           28.099     -0.602    -11.461 bj            1 LIG        0.056122
     26 H2           27.307      0.371    -12.590 bk            1 LIG        0.056122
     27 H3           24.793     -1.485     -7.933 bl            1 LIG        0.201713
     28 H4           22.710     -1.226     -9.125 bm            1 LIG        0.181408
     29 H5           21.183     -2.585    -11.942 bn            1 LIG        0.196456
     30 H6           17.732     -1.373     -9.722 bo            1 LIG        0.197032
     31 H7           20.974      1.367    -10.295 bp            1 LIG        0.177657
     32 H8           28.906      0.497     -7.338 bq            1 LIG        0.156422
     33 H9           27.156      0.862     -7.093 bs            1 LIG        0.156422
     34 H10          27.995      1.345     -8.579 bt            1 LIG        0.156422
     35 H11          23.760      0.544    -13.371 bu            1 LIG        0.091332
     36 H12          28.534      1.792    -11.610 bv            1 LIG        0.488680
@<TRIPOS>BOND
        1  1  3  1
        2  1  22  1
        3  1  25  1
        4  1  26  1
        5  2  3  2
        6  2  7  1
        7  2  19  1
        8  3  4  1
        9  4  5  2
        10  4  16  1
        11  5  6  1
        12  5  27  1
        13  6  7  2
        14  6  28  1
        15  7  8  1
        16  8  9  1
        17  9  10  2
        18  9  15  1
        19  10  11  1
        20  10  29  1
        21  11  12  2
        22  11  20  1
        23  12  13  1
        24  12  30  1
        25  13  14  1
        26  13  15  2
        27  15  31  1
        28  16  17  2
        29  16  18  1
        30  16  21  2
        31  18  32  1
        32  18  33  1
        33  18  34  1
        34  19  23  1
        35  19  24  1
        36  19  35  1
        37  22  36  1
@<TRIPOS>SUBSTRUCTURE
       1 LIG             1 RESIDUE    0 **** ROOT      0
