@<TRIPOS>MOLECULE
LIG
49 53
SMALL
USER_CHARGES
@<TRIPOS>ATOM
      1 C1           -6.392     12.377    -12.016 aa            1 LIG        0.002488
      2 C2           -6.534     11.820    -10.732 ab            1 LIG       -0.227772
      3 C3           -7.727     10.579    -13.032 ad            1 LIG       -0.205127
      4 C4           -7.008     11.777    -13.118 ae            1 LIG       -0.193525
      5 C5           -7.829     10.012    -11.755 af            1 LIG        0.071316
      6 C6           -7.253     10.630    -10.598 ah            1 LIG        0.054910
      7 C7           -7.613      9.750     -9.511 ai            1 LIG        0.102658
      8 N1           -8.280      8.734     -9.985 aj            1 LIG       -0.418262
      9 N2           -8.415      8.860    -11.299 ak            1 LIG       -0.024035
     10 C8           -7.337      9.890     -8.024 an            1 LIG        0.035525
     11 N3           -4.358     13.589    -11.545 ao            1 LIG       -0.490978
     12 C9           -5.533     13.603    -12.213 ap            1 LIG        0.702498
     13 O1           -5.879     14.509    -12.973 aq            1 LIG       -0.624220
     14 C10          -5.962     10.482     -7.735 av            1 LIG        0.094409
     15 C11          -5.853     11.757     -7.164 aw            1 LIG       -0.193441
     16 C12          -4.592     12.305     -6.919 ax            1 LIG       -0.194583
     17 C13          -3.439     11.582     -7.241 ay            1 LIG        0.106332
     18 C14          -3.558     10.313     -7.804 az            1 LIG       -0.194583
     19 C15          -4.813      9.764     -8.052 bb            1 LIG       -0.193441
     20 C16          -2.092     12.164     -6.983 bc            1 LIG        0.035575
     21 C17          -1.736     13.429     -6.505 bd            1 LIG       -0.192721
     22 N4           -0.402     13.455     -6.444 bf            1 LIG        0.225838
     23 N5            0.185     12.350     -6.816 bg            1 LIG       -0.439428
     24 C18          -0.808     11.546     -7.172 bh            1 LIG       -0.016233
     25 C19           0.435     14.569     -6.013 bj            1 LIG       -0.203600
     26 C20          -3.317     14.586    -11.775 bk            1 LIG       -0.044553
     27 C21          -1.892     14.051    -11.736 bl            1 LIG       -0.209904
     28 C22          -2.393     14.958    -10.645 bm            1 LIG       -0.209904
     29 H1           -6.076     12.298     -9.871 bn            1 LIG        0.165820
     30 H2           -8.170     10.109    -13.904 bo            1 LIG        0.139112
     31 H3           -6.873     12.229    -14.094 bp            1 LIG        0.141526
     32 H4           -8.908      8.155    -11.836 bq            1 LIG        0.284192
     33 H5           -8.100     10.539     -7.595 bs            1 LIG        0.036441
     34 H6           -7.439      8.922     -7.521 bt            1 LIG        0.036441
     35 H7           -4.127     12.791    -10.960 bu            1 LIG        0.290568
     36 H8           -6.739     12.317     -6.915 bv            1 LIG        0.136498
     37 H9           -4.510     13.288     -6.479 bw            1 LIG        0.136320
     38 H10          -2.666      9.746     -8.048 bx            1 LIG        0.136320
     39 H11          -4.894      8.780     -8.495 by            1 LIG        0.136498
     40 H12          -2.325     14.279     -6.216 bz            1 LIG        0.150143
     41 H13          -0.615     10.546     -7.537 cb            1 LIG        0.142446
     42 H14          -0.173     15.425     -5.727 ci            1 LIG        0.104614
     43 H15           1.103     14.864     -6.823 cj            1 LIG        0.104614
     44 H16           1.043     14.263     -5.162 ck            1 LIG        0.104614
     45 H17          -3.508     15.340    -12.555 cm            1 LIG        0.129038
     46 H18          -1.137     14.423    -12.428 cn            1 LIG        0.117389
     47 H19          -1.709     13.005    -11.493 ct            1 LIG        0.117389
     48 H20          -2.585     14.547     -9.658 cw            1 LIG        0.117389
     49 H21          -1.986     15.962    -10.632 da            1 LIG        0.117389
@<TRIPOS>BOND
        1  1  2  2
        2  1  4  1
        3  1  12  1
        4  2  6  1
        5  2  29  1
        6  3  4  2
        7  3  5  1
        8  3  30  1
        9  4  31  1
        10  5  6  2
        11  5  9  1
        12  6  7  1
        13  7  8  2
        14  7  10  1
        15  8  9  1
        16  9  32  1
        17  10  14  1
        18  10  33  1
        19  10  34  1
        20  11  12  1
        21  11  26  1
        22  11  35  1
        23  12  13  2
        24  14  15  2
        25  14  19  1
        26  15  16  1
        27  15  36  1
        28  16  17  2
        29  16  37  1
        30  17  18  1
        31  17  20  1
        32  18  19  2
        33  18  38  1
        34  19  39  1
        35  20  21  2
        36  20  24  1
        37  21  22  1
        38  21  40  1
        39  22  23  1
        40  22  25  1
        41  23  24  2
        42  24  41  1
        43  25  42  1
        44  25  43  1
        45  25  44  1
        46  26  27  1
        47  26  28  1
        48  26  45  1
        49  27  28  1
        50  27  46  1
        51  27  47  1
        52  28  48  1
        53  28  49  1
@<TRIPOS>SUBSTRUCTURE
       1 LIG             1 RESIDUE    0 **** ROOT      0
