@<TRIPOS>MOLECULE
LIG
43 45
SMALL
USER_CHARGES
@<TRIPOS>ATOM
      1 C1           -6.373     12.365    -12.012 aa            1 LIG       -0.000279
      2 C2           -6.525     11.817    -10.738 ab            1 LIG       -0.229002
      3 C3           -7.723     10.582    -13.027 ad            1 LIG       -0.204407
      4 C4           -6.987     11.781    -13.132 ae            1 LIG       -0.193782
      5 C5           -7.821     10.015    -11.754 af            1 LIG        0.070517
      6 C6           -7.251     10.622    -10.609 ah            1 LIG        0.057757
      7 C7           -7.611      9.746     -9.512 ai            1 LIG        0.100836
      8 N1           -8.284      8.728     -9.977 aj            1 LIG       -0.417448
      9 N2           -8.417      8.861    -11.298 ak            1 LIG       -0.023002
     10 C8           -7.328      9.896     -8.027 an            1 LIG        0.033934
     11 N3           -4.400     13.649    -11.454 ao            1 LIG       -0.495183
     12 C9           -3.459     14.771    -11.492 ap            1 LIG       -0.134275
     13 C10          -5.536     13.623    -12.192 aq            1 LIG        0.698657
     14 O1           -5.886     14.506    -12.956 av            1 LIG       -0.632725
     15 C11          -5.955     10.491     -7.739 aw            1 LIG        0.085415
     16 C12          -5.845     11.761     -7.166 ax            1 LIG       -0.287115
     17 C13          -4.570     12.305     -6.921 ay            1 LIG        0.199749
     18 C14          -3.431     11.580     -7.226 az            1 LIG        0.195355
     19 C15          -3.543     10.302     -7.808 bb            1 LIG       -0.225178
     20 C16          -4.802      9.766     -8.060 bc            1 LIG       -0.209157
     21 O2           -4.435     13.561     -6.364 bd            1 LIG       -0.352887
     22 C17          -3.684     14.544     -7.077 bf            1 LIG        0.065183
     23 O3           -2.193     12.140     -6.941 bg            1 LIG       -0.353211
     24 C18          -1.057     11.807     -7.739 bh            1 LIG        0.066517
     25 H1           -6.087     12.282     -9.872 bj            1 LIG        0.164433
     26 H2           -8.176     10.127    -13.899 bk            1 LIG        0.140348
     27 H3           -6.886     12.230    -14.101 bl            1 LIG        0.142283
     28 H4           -8.911      8.159    -11.840 bm            1 LIG        0.285181
     29 H5           -8.098     10.540     -7.594 bn            1 LIG        0.037903
     30 H6           -7.444      8.931     -7.516 bo            1 LIG        0.037903
     31 H7           -4.154     12.854    -10.893 bp            1 LIG        0.289373
     32 H8           -2.449     14.403    -11.339 bq            1 LIG        0.095743
     33 H9           -3.677     15.463    -10.683 bs            1 LIG        0.095743
     34 H10          -3.458     15.325    -12.432 bt            1 LIG        0.095743
     35 H11          -6.730     12.315     -6.919 bu            1 LIG        0.164554
     36 H12          -2.662      9.727     -8.055 bv            1 LIG        0.150106
     37 H13          -4.886      8.783     -8.503 bw            1 LIG        0.144072
     38 H14          -3.621     15.440     -6.462 bx            1 LIG        0.059097
     39 H15          -4.146     14.797     -8.028 by            1 LIG        0.059097
     40 H16          -2.655     14.264     -7.277 bz            1 LIG        0.059097
     41 H17          -0.213     12.398     -7.381 cb            1 LIG        0.054352
     42 H18          -1.209     12.064     -8.794 ci            1 LIG        0.054352
     43 H19          -0.778     10.751     -7.642 cj            1 LIG        0.054352
@<TRIPOS>BOND
        1  1  2  2
        2  1  4  1
        3  1  13  1
        4  2  6  1
        5  2  25  1
        6  3  4  2
        7  3  5  1
        8  3  26  1
        9  4  27  1
        10  5  6  2
        11  5  9  1
        12  6  7  1
        13  7  8  2
        14  7  10  1
        15  8  9  1
        16  9  28  1
        17  10  15  1
        18  10  29  1
        19  10  30  1
        20  11  12  1
        21  11  13  1
        22  11  31  1
        23  12  32  1
        24  12  33  1
        25  12  34  1
        26  13  14  2
        27  15  16  2
        28  15  20  1
        29  16  17  1
        30  16  35  1
        31  17  18  2
        32  17  21  1
        33  18  19  1
        34  18  23  1
        35  19  20  2
        36  19  36  1
        37  20  37  1
        38  21  22  1
        39  22  38  1
        40  22  39  1
        41  22  40  1
        42  23  24  1
        43  24  41  1
        44  24  42  1
        45  24  43  1
@<TRIPOS>SUBSTRUCTURE
       1 LIG             1 RESIDUE    0 **** ROOT      0
