@<TRIPOS>MOLECULE
LIG
51 55
SMALL
USER_CHARGES
@<TRIPOS>ATOM
      1 N1           90.243     48.150    266.326 aa            1 LIG       -0.562106
      2 C1           91.591     48.346    266.644 ab            1 LIG        0.281543
      3 C2           91.957     49.539    267.256 ad            1 LIG       -0.246087
      4 C3           93.267     49.786    267.685 ae            1 LIG       -0.000685
      5 C4           94.248     48.761    267.516 af            1 LIG        0.243591
      6 C5           93.871     47.525    266.902 ah            1 LIG        0.293003
      7 C6           92.542     47.350    266.440 ai            1 LIG       -0.314101
      8 C7           93.562     51.072    268.348 aj            1 LIG        0.066363
      9 C8           94.538     51.918    267.808 ak            1 LIG       -0.182869
     10 C9           94.819     53.156    268.392 an            1 LIG       -0.195434
     11 C10          94.100     53.556    269.519 ao            1 LIG        0.069498
     12 C11          93.160     52.654    270.093 ap            1 LIG        0.062751
     13 C12          92.867     51.422    269.508 aq            1 LIG       -0.236617
     14 C13          94.104     54.726    270.325 av            1 LIG       -0.220920
     15 C14          93.320     54.466    271.414 aw            1 LIG       -0.138166
     16 N2           92.700     53.248    271.266 ax            1 LIG        0.035130
     17 C15          91.778     52.668    272.230 ay            1 LIG       -0.190009
     18 N3           94.778     46.513    266.776 az            1 LIG       -0.496567
     19 C16          96.042     46.729    267.211 bb            1 LIG        0.170703
     20 C17          96.426     47.945    267.763 bc            1 LIG        0.162733
     21 N4           95.533     48.946    267.952 bd            1 LIG       -0.486577
     22 C18          89.649     47.398    265.304 bf            1 LIG        0.232341
     23 C19          88.442     46.705    265.505 bg            1 LIG       -0.036988
     24 C20          87.817     46.068    264.428 bh            1 LIG       -0.184287
     25 C21          88.381     46.126    263.157 bj            1 LIG       -0.143365
     26 C22          89.584     46.800    262.956 bk            1 LIG       -0.131061
     27 C23          90.221     47.418    264.029 bl            1 LIG       -0.204315
     28 S1           87.720     46.622    267.143 bm            1 LIG        0.910343
     29 C24          88.731     45.394    268.147 bn            1 LIG       -0.369304
     30 O1           87.905     47.944    267.743 bo            1 LIG       -0.549457
     31 O2           86.374     46.071    266.970 bp            1 LIG       -0.549457
     32 H1           89.584     48.533    266.990 bq            1 LIG        0.370686
     33 H2           91.210     50.307    267.409 bs            1 LIG        0.159116
     34 H3           92.245     46.415    265.990 bt            1 LIG        0.158479
     35 H4           95.085     51.607    266.922 bu            1 LIG        0.136715
     36 H5           95.569     53.789    267.949 bv            1 LIG        0.139304
     37 H6           92.153     50.746    269.947 bw            1 LIG        0.161028
     38 H7           94.710     55.615    270.189 bx            1 LIG        0.142201
     39 H8           93.148     55.054    272.308 by            1 LIG        0.146833
     40 H9           92.225     51.765    272.633 bz            1 LIG        0.095663
     41 H10          90.837     52.425    271.744 cb            1 LIG        0.095663
     42 H11          91.602     53.383    273.037 ci            1 LIG        0.095663
     43 H12          96.760     45.933    267.067 cj            1 LIG        0.054315
     44 H13          97.445     48.147    268.054 ck            1 LIG        0.051148
     45 H14          86.890     45.528    264.549 cm            1 LIG        0.176754
     46 H15          87.875     45.651    262.331 cn            1 LIG        0.158150
     47 H16          90.006     46.865    261.966 ct            1 LIG        0.160139
     48 H17          91.137     47.965    263.871 cw            1 LIG        0.169749
     49 H18          88.286     45.338    269.138 da            1 LIG        0.146256
     50 H19          89.758     45.754    268.218 db            1 LIG        0.146256
     51 H20          88.703     44.415    267.671 dc            1 LIG        0.146256
@<TRIPOS>BOND
        1  1  2  1
        2  1  22  1
        3  1  32  1
        4  2  3  2
        5  2  7  1
        6  3  4  1
        7  3  33  1
        8  4  5  2
        9  4  8  1
        10  5  21  1
        11  5  6  1
        12  6  7  2
        13  6  18  1
        14  7  34  1
        15  8  9  2
        16  8  13  1
        17  9  10  1
        18  9  35  1
        19  10  11  2
        20  10  36  1
        21  11  12  1
        22  11  14  1
        23  12  13  2
        24  12  16  1
        25  13  37  1
        26  14  15  2
        27  14  38  1
        28  15  16  1
        29  15  39  1
        30  16  17  1
        31  17  40  1
        32  17  41  1
        33  17  42  1
        34  18  19  2
        35  19  20  1
        36  19  43  1
        37  20  21  2
        38  20  44  1
        39  22  23  2
        40  22  27  1
        41  23  24  1
        42  23  28  1
        43  24  25  2
        44  24  45  1
        45  25  26  1
        46  25  46  1
        47  26  27  2
        48  26  47  1
        49  27  48  1
        50  28  29  1
        51  28  30  2
        52  28  31  2
        53  29  49  1
        54  29  50  1
        55  29  51  1
@<TRIPOS>SUBSTRUCTURE
       1 LIG             1 RESIDUE    0 **** ROOT      0
