@<TRIPOS>MOLECULE
LIG
47 51
SMALL
USER_CHARGES
@<TRIPOS>ATOM
      1 C1           -4.257     -3.104     13.569 aa            1 LIG        0.065547
      2 O1           -3.874     -2.360     14.716 ab            1 LIG       -0.354085
      3 C2           -2.526     -2.111     14.817 ad            1 LIG        0.190610
      4 C3           -1.746     -2.870     15.682 ae            1 LIG       -0.222513
      5 C4           -0.390     -2.610     15.814 af            1 LIG       -0.223725
      6 C5            0.221     -1.585     15.087 ah            1 LIG        0.272770
      7 N1            1.604     -1.360     15.322 ai            1 LIG       -0.568016
      8 C6            2.537     -0.447     14.759 aj            1 LIG        0.445991
      9 N2            2.182      0.372     13.724 ak            1 LIG       -0.557098
     10 C7            3.114      1.239     13.218 an            1 LIG        0.212136
     11 C8            4.419      1.284     13.703 ao            1 LIG       -0.118492
     12 N3            4.747      0.488     14.760 ap            1 LIG        0.063625
     13 C9            5.898      0.377     15.486 aq            1 LIG       -0.163791
     14 C10           5.588     -0.523     16.529 av            1 LIG        0.030887
     15 N4            4.376     -1.043     16.373 aw            1 LIG       -0.516446
     16 C11           3.837     -0.394     15.326 ax            1 LIG        0.172089
     17 C12           2.636      2.161     12.122 ay            1 LIG        0.105426
     18 C13           1.305      2.631     12.130 az            1 LIG       -0.202429
     19 C14           0.826      3.517     11.163 bb            1 LIG       -0.196852
     20 C15           1.701      3.933     10.171 bc            1 LIG        0.211847
     21 N5            1.495      4.813      9.116 bd            1 LIG       -0.466999
     22 C16           2.628      4.852      8.479 bf            1 LIG        0.071077
     23 N6            3.573      4.058      9.025 bg            1 LIG       -0.199471
     24 C17           3.031      3.447     10.132 bh            1 LIG        0.068121
     25 C18           3.526      2.554     11.086 bj            1 LIG       -0.258649
     26 C19          -0.555     -0.819     14.192 bk            1 LIG       -0.299944
     27 C20          -1.944     -1.088     14.061 bl            1 LIG        0.201292
     28 O2           -2.753     -0.356     13.205 bm            1 LIG       -0.350238
     29 C21          -2.233      0.645     12.352 bn            1 LIG        0.063191
     30 H1           -5.336     -3.252     13.587 bo            1 LIG        0.054889
     31 H2           -3.789     -4.090     13.559 bp            1 LIG        0.054889
     32 H3           -4.012     -2.581     12.644 bq            1 LIG        0.054889
     33 H4           -2.194     -3.662     16.263 bs            1 LIG        0.154844
     34 H5            0.199     -3.207     16.498 bt            1 LIG        0.144492
     35 H6            1.991     -1.934     16.053 bu            1 LIG        0.363787
     36 H7            5.181      1.963     13.342 bv            1 LIG        0.122466
     37 H8            6.786      0.948     15.276 bw            1 LIG        0.148964
     38 H9            6.229     -0.793     17.352 bx            1 LIG        0.148150
     39 H10           0.637      2.317     12.923 by            1 LIG        0.142393
     40 H11          -0.181      3.871     11.192 bz            1 LIG        0.158387
     41 H12           2.854      5.438      7.601 cb            1 LIG        0.168487
     42 H13           4.505      3.975      8.641 ci            1 LIG        0.290578
     43 H14           4.526      2.180     11.041 cj            1 LIG        0.151637
     44 H15          -0.108     -0.033     13.625 ck            1 LIG        0.195914
     45 H16          -3.051      1.073     11.770 cm            1 LIG        0.056458
     46 H17          -1.510      0.234     11.650 cn            1 LIG        0.056458
     47 H18          -1.782      1.450     12.928 ct            1 LIG        0.056458
@<TRIPOS>BOND
        1  1  2  1
        2  1  30  1
        3  1  31  1
        4  1  32  1
        5  2  3  1
        6  3  4  2
        7  3  27  1
        8  4  5  1
        9  4  33  1
        10  5  6  2
        11  5  34  1
        12  6  7  1
        13  6  26  1
        14  7  8  1
        15  7  35  1
        16  8  9  2
        17  8  16  1
        18  9  10  1
        19  10  11  2
        20  10  17  1
        21  11  12  1
        22  11  36  1
        23  12  13  1
        24  12  16  1
        25  13  14  2
        26  13  37  1
        27  14  15  1
        28  14  38  1
        29  15  16  2
        30  17  18  2
        31  17  25  1
        32  18  19  1
        33  18  39  1
        34  19  20  2
        35  19  40  1
        36  20  21  1
        37  20  24  1
        38  21  22  2
        39  22  23  1
        40  22  41  1
        41  23  24  1
        42  23  42  1
        43  24  25  2
        44  25  43  1
        45  26  27  2
        46  26  44  1
        47  27  28  1
        48  28  29  1
        49  29  45  1
        50  29  46  1
        51  29  47  1
@<TRIPOS>SUBSTRUCTURE
       1 LIG             1 RESIDUE    0 **** ROOT      0
