@<TRIPOS>MOLECULE
LIG
43 46
SMALL
USER_CHARGES
@<TRIPOS>ATOM
      1 C1           25.823     33.937     52.087 aa            1 LIG       -0.218938
      2 C2           24.577     33.553     52.837 ab            1 LIG        0.227772
      3 N1           24.503     33.522     54.148 ad            1 LIG       -0.477969
      4 C3           23.314     33.151     54.605 ae            1 LIG        0.223275
      5 C4           22.378     32.920     53.591 af            1 LIG       -0.190019
      6 S1           23.108     33.126     52.036 ah            1 LIG       -0.045399
      7 C5           23.078     32.943     56.075 ai            1 LIG        0.110695
      8 C6           24.121     33.016     57.012 aj            1 LIG       -0.194453
      9 C7           23.906     32.676     58.346 ak            1 LIG       -0.136216
     10 C8           22.647     32.246     58.766 an            1 LIG       -0.195658
     11 C9           21.587     32.198     57.858 ao            1 LIG        0.086724
     12 C10          20.198     31.743     58.300 ap            1 LIG        0.029943
     13 N2           19.910     30.347     57.927 aq            1 LIG        0.046071
     14 N3           19.446     30.137     56.624 av            1 LIG       -0.388782
     15 C11          19.195     28.953     56.160 aw            1 LIG        0.212162
     16 C12          19.446     27.839     57.063 ax            1 LIG       -0.098175
     17 C13          19.916     28.034     58.316 ay            1 LIG       -0.192196
     18 C14          20.199     29.356     58.842 az            1 LIG        0.588457
     19 O1           20.647     29.531     59.976 bb            1 LIG       -0.640160
     20 C15          18.678     28.712     54.793 bc            1 LIG        0.118055
     21 C16          18.869     29.675     53.787 bd            1 LIG       -0.265943
     22 C17          18.402     29.458     52.492 bf            1 LIG        0.224416
     23 F1           18.595     30.398     51.540 bg            1 LIG       -0.160849
     24 C18          17.735     28.275     52.178 bh            1 LIG       -0.275201
     25 C19          17.538     27.309     53.159 bj            1 LIG        0.224416
     26 F2           16.884     26.165     52.860 bk            1 LIG       -0.160849
     27 C20          18.008     27.526     54.453 bl            1 LIG       -0.265943
     28 C21          21.805     32.568     56.528 bm            1 LIG       -0.246730
     29 H1           25.613     34.758     51.407 bn            1 LIG        0.102119
     30 H2           26.189     33.126     51.457 bo            1 LIG        0.102119
     31 H3           26.638     34.240     52.744 bp            1 LIG        0.102119
     32 H4           21.348     32.609     53.667 bq            1 LIG        0.158379
     33 H5           25.117     33.302     56.702 bs            1 LIG        0.138927
     34 H6           24.728     32.718     59.047 bt            1 LIG        0.144279
     35 H7           22.500     31.928     59.789 bu            1 LIG        0.142389
     36 H8           20.077     31.917     59.370 bv            1 LIG        0.081328
     37 H9           19.448     32.393     57.840 bw            1 LIG        0.081328
     38 H10          19.289     26.817     56.752 bx            1 LIG        0.119387
     39 H11          20.107     27.184     58.953 by            1 LIG        0.140001
     40 H12          19.390     30.600     53.995 bz            1 LIG        0.184865
     41 H13          17.375     28.107     51.175 cb            1 LIG        0.189815
     42 H14          17.828     26.751     55.183 ci            1 LIG        0.184865
     43 H15          20.977     32.501     55.838 cj            1 LIG        0.189574
@<TRIPOS>BOND
        1  1  2  1
        2  1  29  1
        3  1  30  1
        4  1  31  1
        5  2  3  2
        6  2  6  1
        7  3  4  1
        8  4  5  2
        9  4  7  1
        10  5  6  1
        11  5  32  1
        12  7  8  2
        13  7  28  1
        14  8  9  1
        15  8  33  1
        16  9  10  2
        17  9  34  1
        18  10  11  1
        19  10  35  1
        20  11  12  1
        21  11  28  2
        22  12  13  1
        23  12  36  1
        24  12  37  1
        25  13  14  1
        26  13  18  1
        27  14  15  2
        28  15  16  1
        29  15  20  1
        30  16  17  2
        31  16  38  1
        32  17  18  1
        33  17  39  1
        34  18  19  2
        35  20  21  2
        36  20  27  1
        37  21  22  1
        38  21  40  1
        39  22  23  1
        40  22  24  2
        41  24  25  1
        42  24  41  1
        43  25  26  1
        44  25  27  2
        45  27  42  1
        46  28  43  1
@<TRIPOS>SUBSTRUCTURE
       1 LIG             1 RESIDUE    0 **** ROOT      0
