@<TRIPOS>MOLECULE
LIG
33 34
SMALL
USER_CHARGES
@<TRIPOS>ATOM
      1 C1           27.316      0.212    -11.568 aa            1 LIG        0.257979
      2 C2           24.822     -0.032    -11.503 ab            1 LIG        0.041965
      3 C3           26.036     -0.222    -10.831 ad            1 LIG       -0.046993
      4 C4           26.040     -0.773     -9.533 ae            1 LIG       -0.020660
      5 C5           24.810     -1.083     -8.920 af            1 LIG       -0.184560
      6 C6           23.613     -0.936     -9.615 ah            1 LIG       -0.196305
      7 C7           23.607     -0.432    -10.915 ai            1 LIG        0.217521
      8 O1           22.477     -0.299    -11.690 aj            1 LIG       -0.293648
      9 C8           21.236     -0.574    -11.182 ak            1 LIG        0.280551
     10 C9           20.668     -1.829    -11.397 an            1 LIG       -0.278987
     11 C10          19.418     -2.106    -10.864 ao            1 LIG        0.229041
     12 C11          18.736     -1.146    -10.138 ap            1 LIG       -0.275106
     13 C12          19.288      0.126     -9.949 aq            1 LIG        0.169451
     14 Cl1          18.424      1.344     -9.087 av            1 LIG       -0.106794
     15 C13          20.548      0.392    -10.459 aw            1 LIG       -0.279431
     16 S1           27.537     -1.075     -8.554 ax            1 LIG        0.870060
     17 O2           27.182     -2.014     -7.467 ay            1 LIG       -0.512367
     18 O3           28.640     -1.489     -9.434 az            1 LIG       -0.512367
     19 C14          27.954      0.588     -7.760 bb            1 LIG        0.270107
     20 F1           27.862      1.577     -8.672 bc            1 LIG       -0.178062
     21 F2           27.095      0.827     -6.795 bd            1 LIG       -0.178062
     22 Cl2          24.743      0.703    -13.077 bf            1 LIG       -0.079753
     23 O4           27.678      1.509    -11.198 bg            1 LIG       -0.730527
     24 F3           18.852     -3.319    -11.058 bh            1 LIG       -0.151505
     25 H1           28.126     -0.494    -11.428 bj            1 LIG        0.044099
     26 H2           27.200      0.192    -12.625 bk            1 LIG        0.044099
     27 H3           24.775     -1.461     -7.909 bl            1 LIG        0.206736
     28 H4           22.692     -1.234     -9.129 bm            1 LIG        0.201979
     29 H5           21.204     -2.588    -11.951 bn            1 LIG        0.195250
     30 H6           17.795     -1.393     -9.700 bo            1 LIG        0.193464
     31 H7           20.990      1.360    -10.260 bp            1 LIG        0.171333
     32 H8           28.974      0.577     -7.425 bq            1 LIG        0.143730
     33 H9           28.460      1.811    -11.762 bs            1 LIG        0.487763
@<TRIPOS>BOND
        1  1  3  1
        2  1  23  1
        3  1  25  1
        4  1  26  1
        5  2  3  2
        6  2  7  1
        7  2  22  1
        8  3  4  1
        9  4  5  2
        10  4  16  1
        11  5  6  1
        12  5  27  1
        13  6  7  2
        14  6  28  1
        15  7  8  1
        16  8  9  1
        17  9  10  2
        18  9  15  1
        19  10  11  1
        20  10  29  1
        21  11  12  2
        22  11  24  1
        23  12  13  1
        24  12  30  1
        25  13  14  1
        26  13  15  2
        27  15  31  1
        28  16  17  2
        29  16  18  2
        30  16  19  1
        31  19  20  1
        32  19  21  1
        33  19  32  1
        34  23  33  1
@<TRIPOS>SUBSTRUCTURE
       1 LIG             1 RESIDUE    0 **** ROOT      0
