@<TRIPOS>MOLECULE
LIG
48 52
SMALL
USER_CHARGES
@<TRIPOS>ATOM
      1 C1           92.567     47.348    266.482 aa            1 LIG       -0.309718
      2 C2           91.620     48.345    266.670 ab            1 LIG        0.279295
      3 C3           91.977     49.540    267.282 ad            1 LIG       -0.244418
      4 C4           93.288     49.805    267.688 ae            1 LIG       -0.000949
      5 C5           94.274     48.785    267.511 af            1 LIG        0.245026
      6 C6           93.895     47.544    266.910 ah            1 LIG        0.293450
      7 N1           94.794     46.533    266.759 ai            1 LIG       -0.493755
      8 N2           95.562     48.968    267.932 aj            1 LIG       -0.483245
      9 C7           96.447     47.959    267.737 ak            1 LIG        0.164364
     10 C8           96.061     46.746    267.180 an            1 LIG        0.171449
     11 N3           90.282     48.149    266.300 ao            1 LIG       -0.549961
     12 C9           93.591     51.103    268.337 ap            1 LIG        0.068702
     13 C10          94.570     51.949    267.793 aq            1 LIG       -0.175507
     14 C11          94.876     53.183    268.363 av            1 LIG       -0.194337
     15 C12          94.174     53.577    269.503 aw            1 LIG        0.069484
     16 C13          93.211     52.677    270.081 ax            1 LIG        0.062156
     17 C14          92.895     51.456    269.491 ay            1 LIG       -0.239630
     18 C15          94.194     54.742    270.324 az            1 LIG       -0.220979
     19 C16          93.321     54.504    271.342 bb            1 LIG       -0.138744
     20 N4           92.760     53.279    271.241 bc            1 LIG        0.031990
     21 C17          89.706     47.352    265.294 bd            1 LIG        0.154606
     22 C18          91.851     52.730    272.245 bf            1 LIG       -0.188318
     23 C19          88.400     46.813    265.400 bg            1 LIG       -0.052495
     24 C20          87.890     46.103    264.300 bh            1 LIG       -0.278663
     25 C21          88.672     45.941    263.163 bj            1 LIG        0.236563
     26 N5           89.922     46.438    263.046 bk            1 LIG       -0.479770
     27 C22          90.412     47.127    264.105 bl            1 LIG        0.178505
     28 C23          87.546     46.959    266.644 bm            1 LIG        0.752160
     29 N6           86.681     45.974    266.891 bn            1 LIG       -0.921934
     30 O1           87.648     47.922    267.400 bo            1 LIG       -0.638096
     31 H1           92.275     46.401    266.057 bp            1 LIG        0.162831
     32 H2           91.220     50.294    267.443 bq            1 LIG        0.153688
     33 H3           97.466     48.157    268.027 bs            1 LIG        0.053907
     34 H4           96.764     45.946    267.008 bt            1 LIG        0.055166
     35 H5           89.593     48.599    266.887 bu            1 LIG        0.379254
     36 H6           95.091     51.654    266.895 bv            1 LIG        0.152976
     37 H7           95.630     53.826    267.920 bw            1 LIG        0.140176
     38 H8           92.140     50.803    269.924 bx            1 LIG        0.133284
     39 H9           94.791     55.638    270.245 by            1 LIG        0.141678
     40 H10          93.072     55.113    272.187 bz            1 LIG        0.145759
     41 H11          91.708     53.464    273.043 cb            1 LIG        0.094224
     42 H12          92.299     51.840    272.682 ci            1 LIG        0.094224
     43 H13          90.889     52.514    271.787 cj            1 LIG        0.094224
     44 H14          86.898     45.679    264.312 ck            1 LIG        0.143279
     45 H15          88.272     45.393    262.329 cm            1 LIG        0.060367
     46 H16          91.405     47.514    263.980 cn            1 LIG        0.078000
     47 H17          86.090     46.023    267.706 ct            1 LIG        0.409865
     48 H18          86.602     45.190    266.255 cw            1 LIG        0.409865
@<TRIPOS>BOND
        1  1  2  2
        2  1  6  1
        3  1  31  1
        4  2  3  1
        5  2  11  1
        6  3  4  2
        7  3  32  1
        8  4  5  1
        9  4  12  1
        10  5  6  2
        11  5  8  1
        12  6  7  1
        13  7  10  2
        14  8  9  2
        15  9  10  1
        16  9  33  1
        17  10  34  1
        18  11  21  1
        19  11  35  1
        20  12  13  2
        21  12  17  1
        22  13  14  1
        23  13  36  1
        24  14  15  2
        25  14  37  1
        26  15  18  1
        27  15  16  1
        28  16  17  2
        29  16  20  1
        30  17  38  1
        31  18  19  2
        32  18  39  1
        33  19  20  1
        34  19  40  1
        35  20  22  1
        36  21  27  1
        37  21  23  2
        38  22  41  1
        39  22  42  1
        40  22  43  1
        41  23  24  1
        42  23  28  1
        43  24  25  2
        44  24  44  1
        45  25  26  1
        46  25  45  1
        47  26  27  2
        48  27  46  1
        49  28  29  1
        50  28  30  2
        51  29  47  1
        52  29  48  1
@<TRIPOS>SUBSTRUCTURE
       1 LIG             1 RESIDUE    0 **** ROOT      0
