@<TRIPOS>MOLECULE
LIG
60 63
SMALL
USER_CHARGES
@<TRIPOS>ATOM
      1 C1           15.290     -4.644      7.538 aa            1 LIG       -0.153448
      2 N1           14.235     -3.960      6.683 ab            1 LIG       -0.095161
      3 C2           14.722     -3.058      5.549 ad            1 LIG        0.082497
      4 C3           14.900     -3.784      4.193 ae            1 LIG        0.254736
      5 C4           15.070     -5.325      4.238 af            1 LIG       -0.070951
      6 C5           15.215     -5.909      2.826 ah            1 LIG       -0.053971
      7 C6           14.098     -5.405      1.884 ai            1 LIG        0.054287
      8 C7           12.706     -6.067      2.131 aj            1 LIG        0.129468
      9 C8           12.753     -7.589      2.032 ak            1 LIG        0.074513
     10 C9           12.322     -8.375      3.103 an            1 LIG       -0.195725
     11 C10          12.396     -9.763      3.019 ao            1 LIG       -0.135126
     12 C11          12.897    -10.363      1.868 ap            1 LIG       -0.135292
     13 C12          13.319     -9.587      0.793 aq            1 LIG       -0.135126
     14 C13          13.245     -8.201      0.874 av            1 LIG       -0.195725
     15 N2           11.699     -5.513      1.226 aw            1 LIG       -0.570317
     16 C14          11.786     -4.184      0.783 ax            1 LIG        0.221392
     17 C15          10.771     -3.719     -0.048 ay            1 LIG       -0.218879
     18 C16          10.820     -2.427     -0.544 az            1 LIG       -0.190236
     19 C17          11.865     -1.564     -0.193 bb            1 LIG       -0.043200
     20 C18          11.917     -0.132     -0.746 bc            1 LIG        0.591304
     21 C19          12.756     -0.102     -2.037 bd            1 LIG       -0.353930
     22 C20          12.580      0.832      0.257 bf            1 LIG       -0.353930
     23 C21          10.480      0.343     -1.038 bg            1 LIG       -0.353930
     24 C22          12.856     -2.035      0.677 bh            1 LIG       -0.251533
     25 C23          12.862     -3.350      1.140 bj            1 LIG       -0.037343
     26 C24          14.009     -3.865      1.995 bk            1 LIG        0.267870
     27 O1           13.795     -3.463      3.347 bl            1 LIG       -0.482623
     28 H1           14.674     -5.181      8.260 bm            1 LIG        0.129499
     29 H2           15.883     -3.844      7.984 bn            1 LIG        0.129499
     30 H3           15.851     -5.302      6.882 bo            1 LIG        0.129499
     31 H4           13.639     -4.672      6.289 bp            1 LIG        0.261725
     32 H5           13.925     -2.312      5.521 bq            1 LIG        0.066286
     33 H6           15.639     -2.610      5.928 bs            1 LIG        0.066286
     34 H7           15.795     -3.348      3.747 bt            1 LIG        0.009475
     35 H8           15.938     -5.602      4.834 bu            1 LIG        0.018150
     36 H9           14.204     -5.788      4.708 bv            1 LIG        0.018150
     37 H10          16.186     -5.623      2.415 bw            1 LIG        0.043097
     38 H11          15.230     -6.997      2.875 bx            1 LIG        0.043097
     39 H12          14.410     -5.609      0.860 by            1 LIG       -0.011818
     40 H13          12.369     -5.835      3.143 bz            1 LIG        0.034150
     41 H14          11.940     -7.912      4.001 cb            1 LIG        0.142801
     42 H15          12.068    -10.373      3.850 ci            1 LIG        0.148482
     43 H16          12.950    -11.440      1.805 cj            1 LIG        0.149716
     44 H17          13.696    -10.058     -0.102 ck            1 LIG        0.148482
     45 H18          13.565     -7.603      0.034 cm            1 LIG        0.142801
     46 H19          10.778     -5.911      1.370 cn            1 LIG        0.330960
     47 H20           9.936     -4.347     -0.317 ct            1 LIG        0.140000
     48 H21          10.018     -2.102     -1.190 cw            1 LIG        0.147980
     49 H22          12.902      0.904     -2.424 da            1 LIG        0.071125
     50 H23          12.296     -0.697     -2.813 db            1 LIG        0.071125
     51 H24          13.749     -0.503     -1.868 dc            1 LIG        0.071125
     52 H25          13.660      0.732      0.236 dd            1 LIG        0.071125
     53 H26          12.314      0.583      1.276 de            1 LIG        0.071125
     54 H27          12.352      1.879      0.057 df            1 LIG        0.071125
     55 H28          10.345      1.403     -1.079 dg            1 LIG        0.071125
     56 H29           9.770      0.020     -0.301 dh            1 LIG        0.071125
     57 H30          10.101     -0.068     -1.948 di            1 LIG        0.071125
     58 H31          13.654     -1.380      0.992 dj            1 LIG        0.152039
     59 H32          14.944     -3.410      1.656 dk            1 LIG        0.008171
     60 H33          13.722     -3.368      7.319 dl            1 LIG        0.261725
@<TRIPOS>BOND
        1  1  2  1
        2  1  28  1
        3  1  29  1
        4  1  30  1
        5  2  3  1
        6  2  31  1
        7  2  60  1
        8  3  4  1
        9  3  32  1
        10  3  33  1
        11  4  5  1
        12  4  27  1
        13  4  34  1
        14  5  6  1
        15  5  35  1
        16  5  36  1
        17  6  7  1
        18  6  37  1
        19  6  38  1
        20  7  8  1
        21  7  26  1
        22  7  39  1
        23  8  9  1
        24  8  15  1
        25  8  40  1
        26  9  10  2
        27  9  14  1
        28  10  11  1
        29  10  41  1
        30  11  12  2
        31  11  42  1
        32  12  13  1
        33  12  43  1
        34  13  14  2
        35  13  44  1
        36  14  45  1
        37  15  16  1
        38  15  46  1
        39  16  17  2
        40  16  25  1
        41  17  18  1
        42  17  47  1
        43  18  19  2
        44  18  48  1
        45  19  20  1
        46  19  24  1
        47  20  21  1
        48  20  22  1
        49  20  23  1
        50  21  49  1
        51  21  50  1
        52  21  51  1
        53  22  52  1
        54  22  53  1
        55  22  54  1
        56  23  55  1
        57  23  56  1
        58  23  57  1
        59  24  25  2
        60  24  58  1
        61  25  26  1
        62  26  27  1
        63  26  59  1
@<TRIPOS>SUBSTRUCTURE
       1 LIG             1 RESIDUE    0 **** ROOT      0
