@<TRIPOS>MOLECULE
LIG
34 35
SMALL
USER_CHARGES
@<TRIPOS>ATOM
      1 C1           -6.389     12.365    -12.080 aa            1 LIG        0.003528
      2 C2           -6.496     11.820    -10.802 ab            1 LIG       -0.244085
      3 C3           -7.746     10.586    -13.057 ad            1 LIG       -0.204561
      4 C4           -7.013     11.772    -13.178 ae            1 LIG       -0.177949
      5 C5           -7.834     10.028    -11.788 af            1 LIG        0.070893
      6 C6           -7.247     10.629    -10.626 ah            1 LIG        0.055987
      7 C7           -7.610      9.774     -9.537 ai            1 LIG        0.096712
      8 N1           -8.297      8.750    -10.000 aj            1 LIG       -0.421333
      9 N2           -8.432      8.880    -11.316 ak            1 LIG       -0.024330
     10 C8           -7.332      9.904     -8.039 an            1 LIG       -0.014134
     11 N3           -4.408     13.637    -11.516 ao            1 LIG       -0.498073
     12 C9           -3.440     14.736    -11.560 ap            1 LIG       -0.132487
     13 C10          -5.508     13.594    -12.235 aq            1 LIG        0.698381
     14 O1           -5.859     14.490    -13.051 av            1 LIG       -0.627206
     15 C11          -5.927     10.444     -7.635 aw            1 LIG        0.219457
     16 C12          -4.788      9.999     -8.581 ax            1 LIG       -0.289799
     17 C13          -5.922     11.964     -7.335 ay            1 LIG       -0.289799
     18 H1           -6.038     12.273     -9.961 az            1 LIG        0.141098
     19 H2           -8.210     10.127    -13.928 bb            1 LIG        0.142560
     20 H3           -6.907     12.236    -14.152 bc            1 LIG        0.169120
     21 H4           -8.932      8.167    -11.839 bd            1 LIG        0.284312
     22 H5           -8.090     10.561     -7.609 bf            1 LIG        0.027419
     23 H6           -7.505      8.955     -7.530 bg            1 LIG        0.027419
     24 H7           -4.163     12.837    -10.930 bh            1 LIG        0.287824
     25 H8           -2.428     14.356    -11.433 bj            1 LIG        0.094285
     26 H9           -3.622     15.441    -10.750 bk            1 LIG        0.094285
     27 H10          -3.453     15.284    -12.502 bl            1 LIG        0.094285
     28 H11          -5.688      9.983     -6.676 bm            1 LIG        0.000971
     29 H12          -3.814     10.348     -8.244 bn            1 LIG        0.069204
     30 H13          -4.895     10.401     -9.578 bo            1 LIG        0.069204
     31 H14          -4.748      8.910     -8.683 bp            1 LIG        0.069204
     32 H15          -4.928     12.307     -7.040 bq            1 LIG        0.069204
     33 H16          -6.651     12.222     -6.566 bs            1 LIG        0.069204
     34 H17          -6.227     12.588     -8.148 bt            1 LIG        0.069204
@<TRIPOS>BOND
        1  1  2  2
        2  1  4  1
        3  1  13  1
        4  2  6  1
        5  2  18  1
        6  3  4  2
        7  3  5  1
        8  3  19  1
        9  4  20  1
        10  5  6  2
        11  5  9  1
        12  6  7  1
        13  7  8  2
        14  7  10  1
        15  8  9  1
        16  9  21  1
        17  10  15  1
        18  10  22  1
        19  10  23  1
        20  11  12  1
        21  11  13  1
        22  11  24  1
        23  12  25  1
        24  12  26  1
        25  12  27  1
        26  13  14  2
        27  15  16  1
        28  15  17  1
        29  15  28  1
        30  16  29  1
        31  16  30  1
        32  16  31  1
        33  17  32  1
        34  17  33  1
        35  17  34  1
@<TRIPOS>SUBSTRUCTURE
       1 LIG             1 RESIDUE    0 **** ROOT      0
