@<TRIPOS>MOLECULE
LIG
53 57
SMALL
USER_CHARGES
@<TRIPOS>ATOM
      1 C1           -6.350     12.355    -12.017 aa            1 LIG        0.010682
      2 C2           -6.494     11.798    -10.743 ab            1 LIG       -0.234963
      3 C3           -7.711     10.575    -13.039 ad            1 LIG       -0.206481
      4 C4           -6.973     11.772    -13.136 ae            1 LIG       -0.189148
      5 C5           -7.813     10.011    -11.765 af            1 LIG        0.068749
      6 C6           -7.231     10.617    -10.606 ah            1 LIG        0.057011
      7 C7           -7.611      9.752     -9.515 ai            1 LIG        0.100219
      8 N1           -8.287      8.739     -9.990 aj            1 LIG       -0.424899
      9 N2           -8.415      8.868    -11.301 ak            1 LIG       -0.025482
     10 C8           -7.337      9.889     -8.025 an            1 LIG        0.033386
     11 N3           -4.354     13.713    -11.463 ao            1 LIG       -0.301593
     12 C9           -5.536     13.643    -12.173 ap            1 LIG        0.675368
     13 O1           -5.953     14.567    -12.877 aq            1 LIG       -0.616315
     14 C10          -5.962     10.485     -7.736 av            1 LIG        0.089769
     15 C11          -5.853     11.757     -7.165 aw            1 LIG       -0.195461
     16 C12          -4.595     12.306     -6.918 ax            1 LIG       -0.193352
     17 C13          -3.445     11.586     -7.238 ay            1 LIG        0.109082
     18 C14          -3.555     10.312     -7.802 az            1 LIG       -0.193352
     19 C15          -4.813      9.765     -8.052 bb            1 LIG       -0.195461
     20 C16          -2.093     12.165     -6.979 bc            1 LIG        0.036447
     21 C17          -1.743     13.424     -6.497 bd            1 LIG       -0.192403
     22 N4           -0.406     13.459     -6.432 bf            1 LIG        0.226380
     23 N5            0.181     12.357     -6.807 bg            1 LIG       -0.438311
     24 C18          -0.803     11.552     -7.170 bh            1 LIG       -0.014487
     25 C19           0.426     14.570     -5.997 bj            1 LIG       -0.203556
     26 C20          -3.644     15.006    -11.329 bk            1 LIG       -0.007849
     27 C21          -2.185     14.866    -11.746 bl            1 LIG        0.215624
     28 O2           -1.525     13.697    -11.288 bm            1 LIG       -0.471430
     29 C22          -2.213     12.501    -11.633 bn            1 LIG        0.215624
     30 C23          -3.652     12.472    -11.012 bo            1 LIG       -0.007849
     31 H1           -6.053     12.278     -9.879 bp            1 LIG        0.154674
     32 H2           -8.168     10.118    -13.910 bq            1 LIG        0.139578
     33 H3           -6.860     12.236    -14.103 bs            1 LIG        0.157369
     34 H4           -8.914      8.160    -11.837 bt            1 LIG        0.282573
     35 H5           -8.098     10.542     -7.594 bu            1 LIG        0.037438
     36 H6           -7.439      8.925     -7.519 bv            1 LIG        0.037438
     37 H7           -6.742     12.318     -6.918 bw            1 LIG        0.134173
     38 H8           -4.511     13.287     -6.478 bx            1 LIG        0.137072
     39 H9           -2.667      9.748     -8.047 by            1 LIG        0.137072
     40 H10          -4.895      8.781     -8.494 bz            1 LIG        0.134173
     41 H11          -2.328     14.280     -6.204 cb            1 LIG        0.149758
     42 H12          -0.614     10.552     -7.540 ci            1 LIG        0.144447
     43 H13          -0.184     15.425     -5.710 cj            1 LIG        0.104542
     44 H14           1.095     14.868     -6.806 ck            1 LIG        0.104542
     45 H15           1.034     14.262     -5.146 cm            1 LIG        0.104542
     46 H16          -4.146     15.837    -11.840 cn            1 LIG        0.057420
     47 H17          -3.578     15.181    -10.262 ct            1 LIG        0.057420
     48 H18          -2.266     14.776    -12.819 cw            1 LIG        0.021245
     49 H19          -1.596     15.774    -11.599 da            1 LIG        0.021245
     50 H20          -2.236     12.397    -12.726 db            1 LIG        0.021245
     51 H21          -1.606     11.668    -11.280 dc            1 LIG        0.021245
     52 H22          -4.110     11.536    -11.355 dd            1 LIG        0.057420
     53 H23          -3.555     12.541     -9.930 de            1 LIG        0.057420
@<TRIPOS>BOND
        1  1  2  2
        2  1  4  1
        3  1  12  1
        4  2  6  1
        5  2  31  1
        6  3  4  2
        7  3  5  1
        8  3  32  1
        9  4  33  1
        10  5  6  2
        11  5  9  1
        12  6  7  1
        13  7  8  2
        14  7  10  1
        15  8  9  1
        16  9  34  1
        17  10  14  1
        18  10  35  1
        19  10  36  1
        20  11  12  1
        21  11  26  1
        22  11  30  1
        23  12  13  2
        24  14  15  2
        25  14  19  1
        26  15  16  1
        27  15  37  1
        28  16  17  2
        29  16  38  1
        30  17  18  1
        31  17  20  1
        32  18  19  2
        33  18  39  1
        34  19  40  1
        35  20  21  2
        36  20  24  1
        37  21  22  1
        38  21  41  1
        39  22  23  1
        40  22  25  1
        41  23  24  2
        42  24  42  1
        43  25  43  1
        44  25  44  1
        45  25  45  1
        46  26  27  1
        47  26  46  1
        48  26  47  1
        49  27  28  1
        50  27  48  1
        51  27  49  1
        52  28  29  1
        53  29  30  1
        54  29  50  1
        55  29  51  1
        56  30  52  1
        57  30  53  1
@<TRIPOS>SUBSTRUCTURE
       1 LIG             1 RESIDUE    0 **** ROOT      0
