@<TRIPOS>MOLECULE
LIG
45 48
SMALL
USER_CHARGES
@<TRIPOS>ATOM
      1 C1           -6.386     12.369    -12.011 aa            1 LIG        0.004254
      2 C2           -6.530     11.818    -10.735 ab            1 LIG       -0.245889
      3 C3           -7.727     10.575    -13.032 ad            1 LIG       -0.203998
      4 C4           -6.994     11.772    -13.129 ae            1 LIG       -0.177659
      5 C5           -7.823     10.011    -11.757 af            1 LIG        0.072260
      6 C6           -7.250     10.625    -10.603 ah            1 LIG        0.053324
      7 C7           -7.615      9.749     -9.513 ai            1 LIG        0.099495
      8 N1           -8.277      8.730     -9.987 aj            1 LIG       -0.418437
      9 N2           -8.413      8.858    -11.300 ak            1 LIG       -0.023473
     10 C8           -7.337      9.891     -8.027 an            1 LIG        0.037887
     11 N3           -4.374     13.618    -11.502 ao            1 LIG       -0.497894
     12 C9           -3.406     14.720    -11.596 ap            1 LIG       -0.132627
     13 C10          -5.541     13.620    -12.190 aq            1 LIG        0.698309
     14 O1           -5.895     14.530    -12.939 av            1 LIG       -0.626765
     15 C11          -5.961     10.485     -7.736 aw            1 LIG        0.093472
     16 C12          -4.810      9.765     -8.056 ax            1 LIG       -0.193052
     17 C13          -3.552     10.313     -7.806 ay            1 LIG       -0.194415
     18 C14          -3.443     11.587     -7.236 az            1 LIG        0.106927
     19 C15          -4.594     12.303     -6.914 bb            1 LIG       -0.194415
     20 C16          -5.850     11.754     -7.160 bc            1 LIG       -0.193052
     21 C17          -2.099     12.175     -6.969 bd            1 LIG        0.035495
     22 C18          -1.766     13.419     -6.436 bf            1 LIG       -0.192784
     23 N4           -0.429     13.478     -6.387 bg            1 LIG        0.226293
     24 N5            0.172     12.403     -6.819 bh            1 LIG       -0.438778
     25 C19          -0.803     11.595     -7.201 bj            1 LIG       -0.016009
     26 C20           0.390     14.587     -5.912 bk            1 LIG       -0.203791
     27 H1           -6.093     12.299     -9.873 bl            1 LIG        0.139154
     28 H2           -8.175     10.112    -13.903 bm            1 LIG        0.143648
     29 H3           -6.867     12.222    -14.102 bn            1 LIG        0.170191
     30 H4           -8.906      8.151    -11.835 bo            1 LIG        0.285689
     31 H5           -8.102     10.541     -7.597 bp            1 LIG        0.031661
     32 H6           -7.444      8.926     -7.525 bq            1 LIG        0.031661
     33 H7           -4.104     12.803    -10.968 bs            1 LIG        0.287833
     34 H8           -2.805     14.737    -10.688 bt            1 LIG        0.094510
     35 H9           -3.860     15.706    -11.705 bu            1 LIG        0.094510
     36 H10          -2.701     14.575    -12.419 bv            1 LIG        0.094510
     37 H11          -4.891      8.782     -8.501 bw            1 LIG        0.135463
     38 H12          -2.663      9.751     -8.054 bx            1 LIG        0.136716
     39 H13          -4.513     13.284     -6.472 by            1 LIG        0.136716
     40 H14          -6.737     12.315     -6.909 bz            1 LIG        0.135463
     41 H15          -2.368     14.248     -6.098 cb            1 LIG        0.149865
     42 H16          -0.603     10.617     -7.617 ci            1 LIG        0.143076
     43 H17          -0.233     15.413     -5.571 cj            1 LIG        0.104886
     44 H18           1.037     14.942     -6.716 ck            1 LIG        0.104886
     45 H19           1.019     14.252     -5.087 cm            1 LIG        0.104886
@<TRIPOS>BOND
        1  1  2  2
        2  1  4  1
        3  1  13  1
        4  2  6  1
        5  2  27  1
        6  3  4  2
        7  3  5  1
        8  3  28  1
        9  4  29  1
        10  5  6  2
        11  5  9  1
        12  6  7  1
        13  7  8  2
        14  7  10  1
        15  8  9  1
        16  9  30  1
        17  10  15  1
        18  10  31  1
        19  10  32  1
        20  11  12  1
        21  11  13  1
        22  11  33  1
        23  12  34  1
        24  12  35  1
        25  12  36  1
        26  13  14  2
        27  15  16  2
        28  15  20  1
        29  16  17  1
        30  16  37  1
        31  17  18  2
        32  17  38  1
        33  18  19  1
        34  18  21  1
        35  19  20  2
        36  19  39  1
        37  20  40  1
        38  21  22  2
        39  21  25  1
        40  22  23  1
        41  22  41  1
        42  23  24  1
        43  23  26  1
        44  24  25  2
        45  25  42  1
        46  26  43  1
        47  26  44  1
        48  26  45  1
@<TRIPOS>SUBSTRUCTURE
       1 LIG             1 RESIDUE    0 **** ROOT      0
