@<TRIPOS>MOLECULE
LIG
43 46
SMALL
USER_CHARGES
@<TRIPOS>ATOM
      1 C1           23.742     33.434     50.566 aa            1 LIG       -0.210603
      2 C2           23.942     33.526     52.058 ab            1 LIG        0.013532
      3 C3           25.047     33.926     52.811 ad            1 LIG        0.014496
      4 N1           24.941     33.888     54.125 ae            1 LIG       -0.478057
      5 C4           23.770     33.437     54.509 af            1 LIG        0.244485
      6 S1           22.692     33.094     53.191 ah            1 LIG       -0.058454
      7 C5           23.399     33.126     55.932 ai            1 LIG        0.109885
      8 C6           24.394     33.122     56.919 aj            1 LIG       -0.186066
      9 C7           24.107     32.737     58.227 ak            1 LIG       -0.134646
     10 C8           22.811     32.363     58.572 an            1 LIG       -0.193913
     11 C9           21.795     32.380     57.616 ao            1 LIG        0.087458
     12 C10          20.366     32.025     58.026 ap            1 LIG        0.031143
     13 N2           20.002     30.620     57.768 aq            1 LIG        0.044938
     14 N3           19.447     30.357     56.514 av            1 LIG       -0.388278
     15 C11          19.064     29.173     56.151 aw            1 LIG        0.213110
     16 C12          19.296     28.104     57.113 ax            1 LIG       -0.097470
     17 C13          19.847     28.348     58.326 ay            1 LIG       -0.192061
     18 C14          20.231     29.683     58.755 az            1 LIG        0.588945
     19 O1           20.685     29.906     59.882 bb            1 LIG       -0.643300
     20 C15          18.413     28.910     54.842 bc            1 LIG        0.118013
     21 C16          17.935     29.990     54.075 bd            1 LIG       -0.265753
     22 C17          17.256     29.778     52.878 bf            1 LIG        0.224735
     23 F1           16.795     30.835     52.171 bg            1 LIG       -0.160257
     24 C18          17.040     28.483     52.420 bh            1 LIG       -0.274718
     25 C19          17.512     27.400     53.158 bj            1 LIG        0.224735
     26 F2           17.288     26.140     52.721 bk            1 LIG       -0.160257
     27 C20          18.203     27.610     54.352 bl            1 LIG       -0.265753
     28 C21          22.091     32.766     56.302 bm            1 LIG       -0.254775
     29 H1           23.684     32.396     50.237 bn            1 LIG        0.089645
     30 H2           24.556     33.902     50.012 bo            1 LIG        0.089645
     31 H3           22.817     33.922     50.254 bp            1 LIG        0.089645
     32 H4           25.980     34.260     52.377 bq            1 LIG        0.152265
     33 H5           25.411     33.394     56.678 bs            1 LIG        0.164053
     34 H6           24.892     32.727     58.968 bt            1 LIG        0.149198
     35 H7           22.597     32.057     59.583 bu            1 LIG        0.144382
     36 H8           20.213     32.291     59.074 bv            1 LIG        0.080648
     37 H9           19.678     32.682     57.490 bw            1 LIG        0.080648
     38 H10          19.034     27.080     56.893 bx            1 LIG        0.120668
     39 H11          20.009     27.531     59.014 by            1 LIG        0.141237
     40 H12          18.067     31.010     54.407 bz            1 LIG        0.185203
     41 H13          16.500     28.318     51.500 cb            1 LIG        0.190524
     42 H14          18.554     26.736     54.875 ci            1 LIG        0.185203
     43 H15          21.297     32.766     55.570 cj            1 LIG        0.185927
@<TRIPOS>BOND
        1  1  2  1
        2  1  29  1
        3  1  30  1
        4  1  31  1
        5  2  3  2
        6  2  6  1
        7  3  4  1
        8  3  32  1
        9  4  5  2
        10  5  6  1
        11  5  7  1
        12  7  8  2
        13  7  28  1
        14  8  9  1
        15  8  33  1
        16  9  10  2
        17  9  34  1
        18  10  11  1
        19  10  35  1
        20  11  12  1
        21  11  28  2
        22  12  13  1
        23  12  36  1
        24  12  37  1
        25  13  14  1
        26  13  18  1
        27  14  15  2
        28  15  16  1
        29  15  20  1
        30  16  17  2
        31  16  38  1
        32  17  18  1
        33  17  39  1
        34  18  19  2
        35  20  21  2
        36  20  27  1
        37  21  22  1
        38  21  40  1
        39  22  23  1
        40  22  24  2
        41  24  25  1
        42  24  41  1
        43  25  26  1
        44  25  27  2
        45  27  42  1
        46  28  43  1
@<TRIPOS>SUBSTRUCTURE
       1 LIG             1 RESIDUE    0 **** ROOT      0
