@<TRIPOS>MOLECULE
LIG
47 49
SMALL
USER_CHARGES
@<TRIPOS>ATOM
      1 N1           24.411     41.372      2.701 aa            1 LIG       -0.529764
      2 C1           24.784     42.618      2.013 ab            1 LIG        0.059686
      3 C2           25.779     43.410      2.897 ad            1 LIG       -0.139396
      4 C3           27.050     42.583      3.206 ae            1 LIG        0.685102
      5 C4           26.662     41.165      3.701 af            1 LIG       -0.139396
      6 C5           25.608     40.509      2.776 ah            1 LIG        0.059686
      7 C6           19.852     40.717      5.901 ai            1 LIG       -0.109945
      8 C7           18.768     40.194      5.288 aj            1 LIG       -0.177470
      9 C8           17.456     39.838      5.977 ak            1 LIG        0.031124
     10 C9           17.517     39.982      7.520 an            1 LIG       -0.027863
     11 C10          18.528     41.025      8.030 ao            1 LIG       -0.026125
     12 C11          19.929     40.800      7.427 ap            1 LIG        0.006668
     13 C12          21.090     40.870      5.107 aq            1 LIG        0.300667
     14 N2           21.112     41.949      4.281 av            1 LIG       -0.526644
     15 C13          22.211     42.131      3.504 aw            1 LIG        0.134529
     16 C14          23.319     41.269      3.562 ax            1 LIG        0.513679
     17 N3           23.286     40.200      4.407 ay            1 LIG       -0.654733
     18 C15          22.183     39.994      5.166 az            1 LIG        0.527457
     19 N4           22.165     38.857      5.969 bb            1 LIG       -0.974312
     20 N5           27.776     43.294      4.352 bc            1 LIG       -1.066652
     21 C16          28.025     42.544      2.009 bd            1 LIG       -0.389599
     22 H1           25.259     42.364      1.063 bf            1 LIG        0.067801
     23 H2           23.924     43.224      1.728 bg            1 LIG        0.067801
     24 H3           25.256     43.673      3.820 bh            1 LIG        0.055584
     25 H4           26.036     44.366      2.433 bj            1 LIG        0.055584
     26 H5           26.232     41.205      4.706 bk            1 LIG        0.055584
     27 H6           27.543     40.525      3.785 bl            1 LIG        0.055584
     28 H7           26.019     40.383      1.772 bm            1 LIG        0.067801
     29 H8           25.357     39.502      3.108 bn            1 LIG        0.067801
     30 H9           18.820     40.028      4.218 bo            1 LIG        0.127823
     31 H10          17.158     38.824      5.707 bp            1 LIG        0.038259
     32 H11          16.674     40.478      5.575 bq            1 LIG        0.038259
     33 H12          16.519     40.200      7.910 bs            1 LIG        0.021155
     34 H13          17.774     39.012      7.945 bt            1 LIG        0.021155
     35 H14          18.584     40.979      9.120 bu            1 LIG        0.022935
     36 H15          18.171     42.020      7.785 bv            1 LIG        0.022935
     37 H16          20.624     41.580      7.737 bw            1 LIG        0.020825
     38 H17          20.333     39.869      7.828 bx            1 LIG        0.020825
     39 H18          22.172     42.972      2.834 by            1 LIG        0.060772
     40 H19          21.335     38.640      6.497 bz            1 LIG        0.409275
     41 H20          23.012     38.309      6.082 cb            1 LIG        0.409275
     42 H21          28.635     42.820      4.594 ci            1 LIG        0.470930
     43 H22          28.001     44.242      4.080 cj            1 LIG        0.470930
     44 H23          27.590     42.035      1.150 ck            1 LIG        0.107827
     45 H24          28.948     42.020      2.257 cm            1 LIG        0.107827
     46 H25          28.299     43.549      1.681 cn            1 LIG        0.107827
     47 H26          27.191     43.336      5.177 ct            1 LIG        0.470930
@<TRIPOS>BOND
        1  1  2  1
        2  1  6  1
        3  1  16  1
        4  2  3  1
        5  2  22  1
        6  2  23  1
        7  3  4  1
        8  3  24  1
        9  3  25  1
        10  4  5  1
        11  4  20  1
        12  4  21  1
        13  5  6  1
        14  5  26  1
        15  5  27  1
        16  6  28  1
        17  6  29  1
        18  7  8  2
        19  7  12  1
        20  7  13  1
        21  8  9  1
        22  8  30  1
        23  9  10  1
        24  9  31  1
        25  9  32  1
        26  10  11  1
        27  10  33  1
        28  10  34  1
        29  11  12  1
        30  11  35  1
        31  11  36  1
        32  12  37  1
        33  12  38  1
        34  13  14  2
        35  13  18  1
        36  14  15  1
        37  15  16  2
        38  15  39  1
        39  16  17  1
        40  17  18  2
        41  18  19  1
        42  19  40  1
        43  19  41  1
        44  20  42  1
        45  20  43  1
        46  20  47  1
        47  21  44  1
        48  21  45  1
        49  21  46  1
@<TRIPOS>SUBSTRUCTURE
       1 LIG             1 RESIDUE    0 **** ROOT      0
