@<TRIPOS>MOLECULE
LIG
36 38
SMALL
USER_CHARGES
@<TRIPOS>ATOM
      1 O1           27.635      1.539    -11.112 aa            1 LIG       -0.690786
      2 C1           27.161      0.308    -11.643 ab            1 LIG        0.204471
      3 C2           26.525      0.382    -13.043 ad            1 LIG        0.288647
      4 C3           25.035      0.592    -12.836 ae            1 LIG       -0.014167
      5 C4           24.813     -0.078    -11.493 af            1 LIG       -0.037970
      6 C5           26.021     -0.233    -10.799 ah            1 LIG       -0.024303
      7 C6           26.026     -0.762     -9.495 ai            1 LIG       -0.015896
      8 C7           24.808     -1.080     -8.893 aj            1 LIG       -0.187555
      9 C8           23.607     -0.927     -9.582 ak            1 LIG       -0.198158
     10 C9           23.605     -0.428    -10.893 an            1 LIG        0.215594
     11 O2           22.484     -0.273    -11.674 ao            1 LIG       -0.309787
     12 C10          21.243     -0.564    -11.178 ap            1 LIG        0.275843
     13 C11          20.546      0.395    -10.451 aq            1 LIG       -0.288273
     14 C12          19.285      0.116     -9.939 av            1 LIG        0.227076
     15 F1           18.607      1.060     -9.252 aw            1 LIG       -0.151755
     16 C13          18.738     -1.147    -10.138 ax            1 LIG       -0.285238
     17 C14          19.416     -2.103    -10.877 ay            1 LIG        0.227076
     18 F2           18.846     -3.308    -11.078 az            1 LIG       -0.151755
     19 C15          20.673     -1.822    -11.401 bb            1 LIG       -0.288273
     20 S1           27.543     -1.073     -8.572 bc            1 LIG        1.117083
     21 O3           28.599     -1.408     -9.515 bd            1 LIG       -0.554261
     22 O4           27.222     -1.993     -7.476 bf            1 LIG       -0.554261
     23 N1           27.970      0.456     -7.860 bg            1 LIG       -0.854408
     24 F3           27.065      1.322    -13.820 bh            1 LIG       -0.202970
     25 F4           26.675     -0.796    -13.653 bj            1 LIG       -0.202970
     26 H1           28.365      1.870    -11.667 bk            1 LIG        0.501262
     27 H2           27.982     -0.405    -11.708 bl            1 LIG        0.082403
     28 H3           24.798      1.652    -12.766 bm            1 LIG        0.068700
     29 H4           24.428      0.189    -13.651 bn            1 LIG        0.068700
     30 H5           24.779     -1.480     -7.891 bo            1 LIG        0.187052
     31 H6           22.691     -1.230     -9.102 bp            1 LIG        0.189808
     32 H7           20.979      1.362    -10.259 bq            1 LIG        0.186764
     33 H8           17.801     -1.407     -9.692 bs            1 LIG        0.195581
     34 H9           21.210     -2.582    -11.944 bt            1 LIG        0.186764
     35 H10          27.313      0.784     -7.155 bu            1 LIG        0.394981
     36 H11          28.224      1.171     -8.547 bv            1 LIG        0.394981
@<TRIPOS>BOND
        1  1  2  1
        2  1  26  1
        3  2  3  1
        4  2  6  1
        5  2  27  1
        6  3  4  1
        7  3  24  1
        8  3  25  1
        9  4  5  1
        10  4  28  1
        11  4  29  1
        12  5  6  2
        13  5  10  1
        14  6  7  1
        15  7  8  2
        16  7  20  1
        17  8  9  1
        18  8  30  1
        19  9  10  2
        20  9  31  1
        21  10  11  1
        22  11  12  1
        23  12  13  2
        24  12  19  1
        25  13  14  1
        26  13  32  1
        27  14  15  1
        28  14  16  2
        29  16  17  1
        30  16  33  1
        31  17  18  1
        32  17  19  2
        33  19  34  1
        34  20  21  2
        35  20  22  2
        36  20  23  1
        37  23  35  1
        38  23  36  1
@<TRIPOS>SUBSTRUCTURE
       1 LIG             1 RESIDUE    0 **** ROOT      0
