@<TRIPOS>MOLECULE
LIG
48 51
SMALL
USER_CHARGES
@<TRIPOS>ATOM
      1 C1           -4.255     -3.103     13.571 aa            1 LIG        0.062956
      2 O1           -3.874     -2.353     14.717 ab            1 LIG       -0.353760
      3 C2           -2.526     -2.106     14.805 ad            1 LIG        0.192976
      4 C3           -1.750     -2.867     15.680 ae            1 LIG       -0.221067
      5 C4           -0.386     -2.611     15.815 af            1 LIG       -0.224452
      6 C5            0.222     -1.583     15.089 ah            1 LIG        0.269179
      7 N1            1.593     -1.349     15.306 ai            1 LIG       -0.564158
      8 C6            2.545     -0.469     14.754 aj            1 LIG        0.446649
      9 N2            2.218      0.355     13.719 ak            1 LIG       -0.550351
     10 C7            3.123      1.241     13.218 an            1 LIG        0.210546
     11 C8            4.421      1.304     13.717 ao            1 LIG       -0.117122
     12 N3            4.748      0.492     14.765 ap            1 LIG        0.064418
     13 C9            5.890      0.384     15.504 aq            1 LIG       -0.163640
     14 C10           5.572     -0.509     16.518 av            1 LIG        0.031056
     15 N4            4.382     -1.054     16.392 aw            1 LIG       -0.512677
     16 C11           3.833     -0.417     15.325 ax            1 LIG        0.173883
     17 C12           2.656      2.156     12.134 ay            1 LIG        0.112774
     18 C13           3.557      2.628     11.167 az            1 LIG       -0.189700
     19 C14           3.129      3.450     10.128 bb            1 LIG       -0.205800
     20 C15           1.788      3.808     10.032 bc            1 LIG        0.161313
     21 F1            1.375      4.594      9.011 bd            1 LIG       -0.174621
     22 C16           0.866      3.371     10.989 bf            1 LIG       -0.052046
     23 C17           1.314      2.558     12.042 bg            1 LIG       -0.228426
     24 C18          -0.577      3.769     10.888 bh            1 LIG        0.755704
     25 O2           -1.445      3.142     10.289 bj            1 LIG       -0.630404
     26 N5           -0.823      4.908     11.537 bk            1 LIG       -0.925783
     27 C19          -0.566     -0.826     14.211 bl            1 LIG       -0.297538
     28 C20          -1.939     -1.076     14.058 bm            1 LIG        0.200266
     29 O3           -2.700     -0.305     13.202 bn            1 LIG       -0.349902
     30 C21          -2.003      0.675     12.525 bo            1 LIG        0.065149
     31 H1           -5.328     -3.295     13.598 bp            1 LIG        0.057540
     32 H2           -3.740     -4.064     13.541 bq            1 LIG        0.057540
     33 H3           -4.033     -2.559     12.651 bs            1 LIG        0.057540
     34 H4           -2.210     -3.653     16.261 bt            1 LIG        0.176029
     35 H5            0.191     -3.210     16.503 bu            1 LIG        0.192625
     36 H6            2.024     -1.886     16.048 bv            1 LIG        0.361426
     37 H7            5.172      2.002     13.373 bw            1 LIG        0.121239
     38 H8            6.766      0.973     15.290 bx            1 LIG        0.149590
     39 H9            6.209     -0.833     17.330 by            1 LIG        0.150013
     40 H10           4.594      2.332     11.200 bz            1 LIG        0.155696
     41 H11           3.829      3.797      9.382 cb            1 LIG        0.168201
     42 H12           0.605      2.213     12.780 ci            1 LIG        0.214453
     43 H13          -1.722      5.363     11.602 cj            1 LIG        0.419457
     44 H14          -0.140      5.455     12.041 ck            1 LIG        0.419457
     45 H15          -0.155     -0.017     13.634 cm            1 LIG        0.148431
     46 H16          -2.687      1.225     11.879 cn            1 LIG        0.055113
     47 H17          -1.223      0.213     11.919 ct            1 LIG        0.055113
     48 H18          -1.550      1.359     13.242 cw            1 LIG        0.055113
@<TRIPOS>BOND
        1  1  2  1
        2  1  31  1
        3  1  32  1
        4  1  33  1
        5  2  3  1
        6  3  4  2
        7  3  28  1
        8  4  5  1
        9  4  34  1
        10  5  6  2
        11  5  35  1
        12  6  7  1
        13  6  27  1
        14  7  8  1
        15  7  36  1
        16  8  9  2
        17  8  16  1
        18  9  10  1
        19  10  11  2
        20  10  17  1
        21  11  12  1
        22  11  37  1
        23  12  13  1
        24  12  16  1
        25  13  14  2
        26  13  38  1
        27  14  15  1
        28  14  39  1
        29  15  16  2
        30  17  18  2
        31  17  23  1
        32  18  19  1
        33  18  40  1
        34  19  20  2
        35  19  41  1
        36  20  21  1
        37  20  22  1
        38  22  23  2
        39  22  24  1
        40  23  42  1
        41  24  25  2
        42  24  26  1
        43  26  43  1
        44  26  44  1
        45  27  28  2
        46  27  45  1
        47  28  29  1
        48  29  30  1
        49  30  46  1
        50  30  47  1
        51  30  48  1
@<TRIPOS>SUBSTRUCTURE
       1 LIG             1 RESIDUE    0 **** ROOT      0
