@<TRIPOS>MOLECULE
LIG
48 52
SMALL
USER_CHARGES
@<TRIPOS>ATOM
      1 C1           92.591     47.290    266.344 aa            1 LIG       -0.307754
      2 C2           91.570     48.215    266.516 ab            1 LIG        0.281982
      3 C3           91.817     49.425    267.155 ad            1 LIG       -0.242043
      4 C4           93.089     49.762    267.634 ae            1 LIG        0.000366
      5 C5           93.892     47.577    266.829 af            1 LIG        0.294844
      6 C6           94.148     48.824    267.486 ah            1 LIG        0.246212
      7 N1           95.385     49.083    268.013 ai            1 LIG       -0.481394
      8 C7           96.343     48.135    267.866 aj            1 LIG        0.165841
      9 C8           96.090     46.926    267.222 ak            1 LIG        0.172041
     10 N2           94.871     46.648    266.690 an            1 LIG       -0.489358
     11 C9           93.261     51.029    268.381 ao            1 LIG        0.069582
     12 N3           90.252     47.934    266.140 ap            1 LIG       -0.562073
     13 C10          89.701     47.193    265.083 aq            1 LIG        0.149906
     14 C11          90.453     46.955    263.921 av            1 LIG        0.177334
     15 N4           89.954     46.330    262.837 aw            1 LIG       -0.466627
     16 C12          88.678     45.881    262.896 ax            1 LIG        0.239000
     17 C13          87.868     46.039    264.010 ay            1 LIG       -0.272693
     18 C14          88.373     46.725    265.124 az            1 LIG       -0.025353
     19 S1           87.314     46.935    266.556 bb            1 LIG        0.919480
     20 O1           87.538     48.278    267.103 bc            1 LIG       -0.548613
     21 O2           85.961     46.521    266.175 bd            1 LIG       -0.548613
     22 C15          88.003     45.683    267.781 bf            1 LIG       -0.370271
     23 C16          94.268     51.952    268.076 bg            1 LIG       -0.180594
     24 C17          94.461     53.091    268.851 bh            1 LIG       -0.195916
     25 C18          92.429     51.239    269.466 bj            1 LIG       -0.227145
     26 C19          92.610     52.330    270.298 bk            1 LIG        0.084519
     27 C20          93.634     53.267    269.975 bl            1 LIG        0.079697
     28 S2           93.657     54.579    271.146 bm            1 LIG       -0.088279
     29 C21          92.447     53.760    272.076 bn            1 LIG        0.235055
     30 C22          91.926     52.651    271.488 bo            1 LIG       -0.245512
     31 N5           92.063     54.267    273.265 bp            1 LIG       -0.857803
     32 H1           92.394     46.327    265.899 bq            1 LIG        0.166015
     33 H2           90.999     50.119    267.286 bs            1 LIG        0.158890
     34 H3           97.320     48.362    268.283 bt            1 LIG        0.057085
     35 H4           96.850     46.168    267.146 bu            1 LIG        0.058872
     36 H5           89.536     48.337    266.743 bv            1 LIG        0.378626
     37 H6           91.467     47.313    263.848 bw            1 LIG        0.090210
     38 H7           88.302     45.352    262.033 bx            1 LIG        0.077339
     39 H8           86.865     45.624    264.019 by            1 LIG        0.169850
     40 H9           87.415     45.741    268.699 bz            1 LIG        0.147577
     41 H10          89.040     45.917    267.987 cb            1 LIG        0.147577
     42 H11          87.910     44.687    267.352 ci            1 LIG        0.147577
     43 H12          94.913     51.782    267.225 cj            1 LIG        0.142611
     44 H13          95.237     53.809    268.609 ck            1 LIG        0.144538
     45 H14          91.671     50.512    269.711 cm            1 LIG        0.160346
     46 H15          91.141     52.060    271.923 cn            1 LIG        0.143474
     47 H16          92.289     55.242    273.471 ct            1 LIG        0.401797
     48 H17          91.196     53.943    273.713 cw            1 LIG        0.401797
@<TRIPOS>BOND
        1  1  2  2
        2  1  5  1
        3  1  32  1
        4  2  3  1
        5  2  12  1
        6  3  4  2
        7  3  33  1
        8  4  6  1
        9  4  11  1
        10  5  6  2
        11  5  10  1
        12  6  7  1
        13  7  8  2
        14  8  9  1
        15  8  34  1
        16  9  10  2
        17  9  35  1
        18  11  23  2
        19  11  25  1
        20  12  13  1
        21  12  36  1
        22  13  14  2
        23  13  18  1
        24  14  15  1
        25  14  37  1
        26  15  16  2
        27  16  17  1
        28  16  38  1
        29  17  18  2
        30  17  39  1
        31  18  19  1
        32  19  20  2
        33  19  21  2
        34  19  22  1
        35  22  40  1
        36  22  41  1
        37  22  42  1
        38  23  24  1
        39  23  43  1
        40  24  27  2
        41  24  44  1
        42  25  26  2
        43  25  45  1
        44  26  27  1
        45  26  30  1
        46  27  28  1
        47  28  29  1
        48  29  30  2
        49  29  31  1
        50  30  46  1
        51  31  47  1
        52  31  48  1
@<TRIPOS>SUBSTRUCTURE
       1 LIG             1 RESIDUE    0 **** ROOT      0
