@<TRIPOS>MOLECULE
LIG
51 54
SMALL
USER_CHARGES
@<TRIPOS>ATOM
      1 C1           -2.421      4.636     12.315 aa            1 LIG       -0.134087
      2 N1           -1.055      4.183     12.068 ab            1 LIG       -0.495264
      3 C2           -0.578      3.765     10.896 ad            1 LIG        0.698230
      4 O1           -1.261      3.718      9.877 ae            1 LIG       -0.625504
      5 C3            0.866      3.371     10.989 af            1 LIG        0.012906
      6 C4            1.788      3.808     10.032 ah            1 LIG       -0.192553
      7 C5            3.129      3.450     10.128 ai            1 LIG       -0.135265
      8 C6            3.557      2.628     11.167 aj            1 LIG       -0.181782
      9 C7            2.656      2.156     12.134 ak            1 LIG        0.114669
     10 C8            1.314      2.558     12.042 an            1 LIG       -0.233384
     11 C9            3.123      1.241     13.218 ao            1 LIG        0.211185
     12 C10           4.421      1.304     13.717 ap            1 LIG       -0.116436
     13 N2            4.748      0.492     14.765 aq            1 LIG        0.065429
     14 C11           5.890      0.384     15.504 av            1 LIG       -0.163180
     15 C12           5.572     -0.509     16.518 aw            1 LIG        0.031124
     16 N3            4.382     -1.054     16.392 ax            1 LIG       -0.516397
     17 C13           3.833     -0.417     15.325 ay            1 LIG        0.172824
     18 C14           2.545     -0.469     14.754 az            1 LIG        0.446201
     19 N4            1.593     -1.349     15.306 bb            1 LIG       -0.567024
     20 C15           0.222     -1.583     15.089 bc            1 LIG        0.271961
     21 C16          -0.386     -2.611     15.815 bd            1 LIG       -0.225195
     22 C17          -1.750     -2.867     15.680 bf            1 LIG       -0.222277
     23 C18          -2.526     -2.106     14.805 bg            1 LIG        0.191292
     24 O2           -3.874     -2.353     14.717 bh            1 LIG       -0.353422
     25 C19          -4.255     -3.103     13.571 bj            1 LIG        0.065217
     26 C20          -1.939     -1.076     14.058 bk            1 LIG        0.201397
     27 O3           -2.699     -0.305     13.202 bl            1 LIG       -0.348819
     28 C21          -2.002      0.675     12.525 bm            1 LIG        0.064556
     29 C22          -0.566     -0.826     14.211 bn            1 LIG       -0.297320
     30 N5            2.218      0.355     13.719 bo            1 LIG       -0.553362
     31 H1           -2.527      4.917     13.363 bp            1 LIG        0.095839
     32 H2           -3.119      3.831     12.083 bq            1 LIG        0.095839
     33 H3           -2.638      5.498     11.684 bs            1 LIG        0.095839
     34 H4           -0.530      4.238     12.929 bt            1 LIG        0.290017
     35 H5            1.456      4.435      9.217 bu            1 LIG        0.140182
     36 H6            3.834      3.794      9.384 bv            1 LIG        0.146769
     37 H7            4.593      2.331     11.200 bw            1 LIG        0.165817
     38 H8            0.605      2.213     12.781 bx            1 LIG        0.166421
     39 H9            5.170      2.003     13.372 by            1 LIG        0.126268
     40 H10           6.766      0.974     15.290 bz            1 LIG        0.150835
     41 H11           6.209     -0.833     17.330 cb            1 LIG        0.148823
     42 H12           2.025     -1.885     16.048 ci            1 LIG        0.362795
     43 H13           0.191     -3.210     16.503 cj            1 LIG        0.187255
     44 H14          -2.210     -3.653     16.261 ck            1 LIG        0.156140
     45 H15          -4.022     -2.565     12.651 cm            1 LIG        0.055279
     46 H16          -5.330     -3.285     13.591 cn            1 LIG        0.055279
     47 H17          -3.749     -4.069     13.548 ct            1 LIG        0.055279
     48 H18          -2.685      1.226     11.879 cw            1 LIG        0.056114
     49 H19          -1.222      0.213     11.920 da            1 LIG        0.056114
     50 H20          -1.548      1.359     13.242 db            1 LIG        0.056114
     51 H21          -0.155     -0.017     13.634 dc            1 LIG        0.151262
@<TRIPOS>BOND
        1  1  2  1
        2  1  31  1
        3  1  32  1
        4  1  33  1
        5  2  3  1
        6  2  34  1
        7  3  4  2
        8  3  5  1
        9  5  6  2
        10  5  10  1
        11  6  7  1
        12  6  35  1
        13  7  8  2
        14  7  36  1
        15  8  9  1
        16  8  37  1
        17  9  10  2
        18  9  11  1
        19  10  38  1
        20  11  12  2
        21  11  30  1
        22  12  13  1
        23  12  39  1
        24  13  14  1
        25  13  17  1
        26  14  15  2
        27  14  40  1
        28  15  16  1
        29  15  41  1
        30  16  17  2
        31  17  18  1
        32  18  19  1
        33  18  30  2
        34  19  20  1
        35  19  42  1
        36  20  21  2
        37  20  29  1
        38  21  22  1
        39  21  43  1
        40  22  23  2
        41  22  44  1
        42  23  24  1
        43  23  26  1
        44  24  25  1
        45  25  45  1
        46  25  46  1
        47  25  47  1
        48  26  27  1
        49  26  29  2
        50  27  28  1
        51  28  48  1
        52  28  49  1
        53  28  50  1
        54  29  51  1
@<TRIPOS>SUBSTRUCTURE
       1 LIG             1 RESIDUE    0 **** ROOT      0
