@<TRIPOS>MOLECULE
LIG
55 58
SMALL
USER_CHARGES
@<TRIPOS>ATOM
      1 C1           -6.374     12.352    -12.016 aa            1 LIG        0.004221
      2 C2           -6.510     11.806    -10.737 ab            1 LIG       -0.245445
      3 C3           -7.722     10.584    -13.027 ad            1 LIG       -0.204561
      4 C4           -6.989     11.776    -13.135 ae            1 LIG       -0.177376
      5 C5           -7.816     10.018    -11.756 af            1 LIG        0.071592
      6 C6           -7.242     10.618    -10.602 ah            1 LIG        0.056076
      7 C7           -7.617      9.749     -9.509 ai            1 LIG        0.098743
      8 N1           -8.285      8.729     -9.985 aj            1 LIG       -0.423398
      9 N2           -8.418      8.866    -11.297 ak            1 LIG       -0.023771
     10 C8           -7.337      9.888     -8.026 an            1 LIG        0.033116
     11 N3           -4.402     13.648    -11.458 ao            1 LIG       -0.497957
     12 C9           -3.462     14.775    -11.495 ap            1 LIG       -0.132245
     13 C10          -5.533     13.616    -12.196 aq            1 LIG        0.698329
     14 O1           -5.878     14.502    -12.973 av            1 LIG       -0.627041
     15 C11          -5.958     10.486     -7.735 aw            1 LIG        0.091216
     16 C12          -5.849     11.755     -7.160 ax            1 LIG       -0.195966
     17 C13          -4.597     12.307     -6.915 ay            1 LIG       -0.195124
     18 C14          -3.447     11.586     -7.237 az            1 LIG        0.105921
     19 C15          -3.551     10.309     -7.806 bb            1 LIG       -0.195124
     20 C16          -4.809      9.765     -8.052 bc            1 LIG       -0.195966
     21 C17          -2.090     12.167     -6.980 bd            1 LIG        0.032823
     22 C18          -1.748     13.412     -6.487 bf            1 LIG       -0.191978
     23 N4           -0.399     13.466     -6.433 bg            1 LIG        0.183116
     24 N5            0.187     12.369     -6.839 bh            1 LIG       -0.441064
     25 C19          -0.803     11.563     -7.190 bj            1 LIG       -0.017083
     26 C20           0.439     14.589     -5.964 bk            1 LIG       -0.040316
     27 C21           1.504     14.214     -4.874 bl            1 LIG        0.445551
     28 O2            2.630     13.630     -5.498 bm            1 LIG       -0.731239
     29 C22           0.950     13.161     -3.905 bn            1 LIG       -0.316354
     30 C23           2.018     15.448     -4.104 bo            1 LIG       -0.316354
     31 H1           -6.087     12.281     -9.877 bp            1 LIG        0.143963
     32 H2           -8.178     10.140    -13.892 bq            1 LIG        0.143223
     33 H3           -6.888     12.233    -14.107 bs            1 LIG        0.170424
     34 H4           -8.914      8.164    -11.838 bt            1 LIG        0.284978
     35 H5           -7.438      8.931     -7.525 bu            1 LIG        0.038231
     36 H6           -8.100     10.537     -7.591 bv            1 LIG        0.038231
     37 H7           -4.160     12.874    -10.874 bw            1 LIG        0.288696
     38 H8           -2.443     14.398    -11.339 bx            1 LIG        0.094378
     39 H9           -3.680     15.468    -10.681 by            1 LIG        0.094378
     40 H10          -3.465     15.319    -12.431 bz            1 LIG        0.094378
     41 H11          -6.736     12.316     -6.906 cb            1 LIG        0.135652
     42 H12          -4.522     13.288     -6.478 ci            1 LIG        0.137365
     43 H13          -2.672      9.746     -8.056 cj            1 LIG        0.137365
     44 H14          -4.887      8.781     -8.494 ck            1 LIG        0.135652
     45 H15          -2.346     14.264     -6.172 cm            1 LIG        0.154906
     46 H16          -0.629     10.567     -7.571 cn            1 LIG        0.141406
     47 H17          -0.227     15.366     -5.586 ct            1 LIG        0.063724
     48 H18           0.927     15.014     -6.842 cw            1 LIG        0.063724
     49 H19           3.210     13.286     -4.813 da            1 LIG        0.467330
     50 H20           0.655     12.275     -4.469 db            1 LIG        0.086609
     51 H21           0.080     13.545     -3.366 dc            1 LIG        0.086609
     52 H22           1.683     12.859     -3.158 dd            1 LIG        0.086609
     53 H23           2.521     16.162     -4.756 de            1 LIG        0.086609
     54 H24           2.734     15.165     -3.331 df            1 LIG        0.086609
     55 H25           1.202     15.975     -3.607 dg            1 LIG        0.086609
@<TRIPOS>BOND
        1  1  2  2
        2  1  4  1
        3  1  13  1
        4  2  6  1
        5  2  31  1
        6  3  4  2
        7  3  5  1
        8  3  32  1
        9  4  33  1
        10  5  6  2
        11  5  9  1
        12  6  7  1
        13  7  8  2
        14  7  10  1
        15  8  9  1
        16  9  34  1
        17  10  15  1
        18  10  35  1
        19  10  36  1
        20  11  12  1
        21  11  13  1
        22  11  37  1
        23  12  38  1
        24  12  39  1
        25  12  40  1
        26  13  14  2
        27  15  16  2
        28  15  20  1
        29  16  17  1
        30  16  41  1
        31  17  18  2
        32  17  42  1
        33  18  19  1
        34  18  21  1
        35  19  20  2
        36  19  43  1
        37  20  44  1
        38  21  22  2
        39  21  25  1
        40  22  23  1
        41  22  45  1
        42  23  24  1
        43  23  26  1
        44  24  25  2
        45  25  46  1
        46  26  27  1
        47  26  47  1
        48  26  48  1
        49  27  28  1
        50  27  29  1
        51  27  30  1
        52  28  49  1
        53  29  50  1
        54  29  51  1
        55  29  52  1
        56  30  53  1
        57  30  54  1
        58  30  55  1
@<TRIPOS>SUBSTRUCTURE
       1 LIG             1 RESIDUE    0 **** ROOT      0
