@<TRIPOS>MOLECULE
LIG
32 34
SMALL
USER_CHARGES
@<TRIPOS>ATOM
      1 O1           27.605      1.545    -11.139 aa            1 LIG       -0.684944
      2 C1           27.146      0.305    -11.657 ab            1 LIG        0.209875
      3 C2           26.519      0.379    -13.058 ad            1 LIG        0.288321
      4 C3           25.026      0.597    -12.854 ae            1 LIG       -0.016996
      5 C4           24.788     -0.070    -11.515 af            1 LIG       -0.044764
      6 C5           25.996     -0.226    -10.822 ah            1 LIG       -0.041761
      7 C6           26.000     -0.756     -9.527 ai            1 LIG        0.131751
      8 C7           24.793     -1.083     -8.911 aj            1 LIG       -0.179960
      9 C8           23.592     -0.925     -9.598 ak            1 LIG       -0.209691
     10 C9           23.587     -0.423    -10.907 an            1 LIG        0.218197
     11 O2           22.467     -0.268    -11.689 ao            1 LIG       -0.307485
     12 C10          21.232     -0.565    -11.187 ap            1 LIG        0.274299
     13 C11          20.541      0.396    -10.453 aq            1 LIG       -0.283274
     14 C12          19.282      0.116     -9.940 av            1 LIG        0.227349
     15 F1           18.606      1.063     -9.252 aw            1 LIG       -0.151084
     16 C13          18.735     -1.145    -10.137 ax            1 LIG       -0.282001
     17 C14          19.413     -2.106    -10.875 ay            1 LIG        0.227349
     18 F2           18.845     -3.309    -11.075 az            1 LIG       -0.151084
     19 C15          20.668     -1.820    -11.404 bb            1 LIG       -0.283274
     20 F3           27.067      1.316    -13.830 bc            1 LIG       -0.203756
     21 F4           26.671     -0.801    -13.663 bd            1 LIG       -0.203756
     22 C16          27.248     -0.980     -8.820 bf            1 LIG        0.221653
     23 N1           28.243     -1.160     -8.263 bg            1 LIG       -0.370713
     24 H1           28.356      1.861    -11.673 bh            1 LIG        0.491139
     25 H2           27.970     -0.412    -11.675 bj            1 LIG        0.081116
     26 H3           24.797      1.660    -12.780 bk            1 LIG        0.066950
     27 H4           24.419      0.194    -13.665 bl            1 LIG        0.066950
     28 H5           24.771     -1.481     -7.907 bm            1 LIG        0.171397
     29 H6           22.683     -1.232     -9.107 bn            1 LIG        0.165232
     30 H7           20.977      1.359    -10.256 bo            1 LIG        0.187999
     31 H8           17.799     -1.405     -9.693 bp            1 LIG        0.196965
     32 H9           21.205     -2.582    -11.946 bq            1 LIG        0.187999
@<TRIPOS>BOND
        1  1  2  1
        2  1  24  1
        3  2  3  1
        4  2  6  1
        5  2  25  1
        6  3  4  1
        7  3  20  1
        8  3  21  1
        9  4  5  1
        10  4  26  1
        11  4  27  1
        12  5  6  2
        13  5  10  1
        14  6  7  1
        15  7  8  2
        16  7  22  1
        17  8  9  1
        18  8  28  1
        19  9  10  2
        20  9  29  1
        21  10  11  1
        22  11  12  1
        23  12  13  2
        24  12  19  1
        25  13  14  1
        26  13  30  1
        27  14  15  1
        28  14  16  2
        29  16  17  1
        30  16  31  1
        31  17  18  1
        32  17  19  2
        33  19  32  1
        34  22  23  3
@<TRIPOS>SUBSTRUCTURE
       1 LIG             1 RESIDUE    0 **** ROOT      0
