@<TRIPOS>MOLECULE
LIG
39 41
SMALL
USER_CHARGES
@<TRIPOS>ATOM
      1 O1           27.494      1.590    -11.433 aa            1 LIG       -0.705933
      2 C1           27.137      0.269    -11.719 ab            1 LIG        0.203676
      3 C2           26.495      0.332    -13.098 ad            1 LIG        0.289937
      4 C3           25.022      0.599    -12.843 ae            1 LIG       -0.017567
      5 C4           24.802     -0.060    -11.496 af            1 LIG       -0.036497
      6 C5           26.015     -0.226    -10.817 ah            1 LIG       -0.032756
      7 C6           26.024     -0.759     -9.512 ai            1 LIG       -0.023180
      8 C7           24.806     -1.079     -8.902 aj            1 LIG       -0.183491
      9 C8           23.606     -0.932     -9.593 ak            1 LIG       -0.206195
     10 C9           23.602     -0.426    -10.899 an            1 LIG        0.218730
     11 O2           22.485     -0.287    -11.691 ao            1 LIG       -0.301373
     12 C10          21.245     -0.573    -11.195 ap            1 LIG        0.273729
     13 C11          20.552      0.398    -10.472 aq            1 LIG       -0.283959
     14 C12          19.293      0.125     -9.960 av            1 LIG        0.227857
     15 F1           18.620      1.083     -9.284 aw            1 LIG       -0.150536
     16 C13          18.741     -1.137    -10.142 ax            1 LIG       -0.282213
     17 C14          19.421     -2.109    -10.868 ay            1 LIG        0.227857
     18 F2           18.853     -3.314    -11.060 az            1 LIG       -0.150536
     19 C15          20.675     -1.829    -11.401 bb            1 LIG       -0.283959
     20 S1           27.539     -1.065     -8.588 bc            1 LIG        1.089083
     21 O3           28.598     -1.388     -9.539 bd            1 LIG       -0.559513
     22 O4           27.231     -2.015     -7.514 bf            1 LIG       -0.559513
     23 N1           27.941      0.458     -7.806 bg            1 LIG       -0.673484
     24 F3           27.038      1.266    -13.891 bh            1 LIG       -0.202468
     25 F4           26.628     -0.838    -13.697 bj            1 LIG       -0.202468
     26 C16          28.493      1.546     -8.607 bk            1 LIG       -0.053962
     27 H1           28.374      1.786    -11.804 bl            1 LIG        0.504631
     28 H2           27.989     -0.412    -11.712 bm            1 LIG        0.084127
     29 H3           24.811      1.672    -12.786 bn            1 LIG        0.075249
     30 H4           24.398      0.178    -13.625 bo            1 LIG        0.075249
     31 H5           24.783     -1.464     -7.893 bp            1 LIG        0.199117
     32 H6           22.688     -1.237     -9.118 bq            1 LIG        0.180116
     33 H7           20.988      1.361    -10.272 bs            1 LIG        0.189664
     34 H8           17.796     -1.380     -9.707 bt            1 LIG        0.197969
     35 H9           21.208     -2.590    -11.950 bu            1 LIG        0.189664
     36 H10          28.359      0.373     -6.880 bv            1 LIG        0.403312
     37 H11          28.548      2.469     -8.039 bw            1 LIG        0.093212
     38 H12          27.752      1.787     -9.327 bx            1 LIG        0.093212
     39 H13          29.472      1.265     -9.038 by            1 LIG        0.093212
@<TRIPOS>BOND
        1  1  2  1
        2  1  27  1
        3  2  3  1
        4  2  6  1
        5  2  28  1
        6  3  4  1
        7  3  24  1
        8  3  25  1
        9  4  5  1
        10  4  29  1
        11  4  30  1
        12  5  6  2
        13  5  10  1
        14  6  7  1
        15  7  8  2
        16  7  20  1
        17  8  9  1
        18  8  31  1
        19  9  10  2
        20  9  32  1
        21  10  11  1
        22  11  12  1
        23  12  13  2
        24  12  19  1
        25  13  14  1
        26  13  33  1
        27  14  15  1
        28  14  16  2
        29  16  17  1
        30  16  34  1
        31  17  18  1
        32  17  19  2
        33  19  35  1
        34  20  21  2
        35  20  22  2
        36  20  23  1
        37  23  26  1
        38  23  36  1
        39  26  37  1
        40  26  38  1
        41  26  39  1
@<TRIPOS>SUBSTRUCTURE
       1 LIG             1 RESIDUE    0 **** ROOT      0
