@<TRIPOS>MOLECULE
LIG
52 55
SMALL
USER_CHARGES
@<TRIPOS>ATOM
      1 C1           10.528      0.395     -0.701 aa            1 LIG       -0.351175
      2 C2           11.955     -0.176     -0.741 ab            1 LIG        0.591504
      3 C3           12.416     -0.165     -2.197 ad            1 LIG       -0.351175
      4 C4           12.884      0.752      0.082 ae            1 LIG       -0.351175
      5 C5           11.894     -1.596     -0.195 af            1 LIG       -0.048181
      6 C6           10.836     -2.443     -0.550 ah            1 LIG       -0.193875
      7 C7           10.770     -3.741     -0.053 ai            1 LIG       -0.221274
      8 C8           11.788     -4.216      0.771 aj            1 LIG        0.224190
      9 C9           12.860     -3.385      1.139 ak            1 LIG       -0.030961
     10 C10          12.874     -2.073      0.673 an            1 LIG       -0.249305
     11 C11          14.014     -3.888      1.982 ao            1 LIG        0.272257
     12 O1           13.803     -3.451      3.329 ap            1 LIG       -0.489442
     13 C12          14.880     -3.787      4.212 aq            1 LIG        0.223245
     14 C13          15.074     -5.321      4.248 av            1 LIG       -0.058005
     15 C14          15.223     -5.905      2.841 aw            1 LIG       -0.048583
     16 C15          14.111     -5.414      1.889 ax            1 LIG        0.050698
     17 C16          12.711     -6.063      2.131 ay            1 LIG        0.130423
     18 C17          12.759     -7.569      2.035 az            1 LIG        0.067554
     19 C18          13.248     -8.188      0.880 bb            1 LIG       -0.193118
     20 C19          13.323     -9.585      0.827 bc            1 LIG       -0.216614
     21 C20          12.911    -10.358      1.949 bd            1 LIG        0.288767
     22 O2           12.963    -11.673      2.090 bf            1 LIG       -0.625376
     23 C21          12.394     -9.694      3.062 bg            1 LIG       -0.216614
     24 C22          12.315     -8.313      3.122 bh            1 LIG       -0.193118
     25 N1           11.710     -5.542      1.205 bj            1 LIG       -0.566274
     26 H1           10.528      1.463     -0.846 bk            1 LIG        0.068428
     27 H2           10.164      0.246      0.289 bl            1 LIG        0.068428
     28 H3            9.800     -0.034     -1.398 bm            1 LIG        0.068428
     29 H4           11.524     -0.481     -2.720 bn            1 LIG        0.068428
     30 H5           13.218     -0.865     -2.408 bo            1 LIG        0.068428
     31 H6           12.709      0.805     -2.591 bp            1 LIG        0.068428
     32 H7           12.937      1.776     -0.305 bq            1 LIG        0.068428
     33 H8           13.880      0.335      0.096 bs            1 LIG        0.068428
     34 H9           12.581      0.801      1.125 bt            1 LIG        0.068428
     35 H10          10.040     -2.126     -1.199 bu            1 LIG        0.136096
     36 H11           9.935     -4.375     -0.321 bv            1 LIG        0.129374
     37 H12          13.704     -1.465      0.996 bw            1 LIG        0.148476
     38 H13          14.943     -3.448      1.605 bx            1 LIG       -0.001039
     39 H14          15.796     -3.314      3.870 by            1 LIG        0.013236
     40 H15          14.668     -3.402      5.208 bz            1 LIG        0.013236
     41 H16          15.951     -5.570      4.848 cb            1 LIG        0.019999
     42 H17          14.220     -5.775      4.748 ci            1 LIG        0.019999
     43 H18          16.190     -5.615      2.421 cj            1 LIG        0.019889
     44 H19          15.245     -6.994      2.895 ck            1 LIG        0.019889
     45 H20          14.421     -5.637      0.866 cm            1 LIG       -0.005041
     46 H21          12.370     -5.808      3.140 cn            1 LIG        0.036180
     47 H22          13.567     -7.594      0.036 ct            1 LIG        0.148539
     48 H23          13.698    -10.056     -0.075 cw            1 LIG        0.148701
     49 H24          13.184    -12.182      1.279 da            1 LIG        0.475839
     50 H25          12.082    -10.309      3.885 db            1 LIG        0.148701
     51 H26          11.923     -7.865      4.019 dc            1 LIG        0.148539
     52 H27          10.808     -5.988      1.273 dd            1 LIG        0.319163
@<TRIPOS>BOND
        1  1  2  1
        2  1  26  1
        3  1  27  1
        4  1  28  1
        5  2  3  1
        6  2  4  1
        7  2  5  1
        8  3  29  1
        9  3  30  1
        10  3  31  1
        11  4  32  1
        12  4  33  1
        13  4  34  1
        14  5  6  2
        15  5  10  1
        16  6  7  1
        17  6  35  1
        18  7  8  2
        19  7  36  1
        20  8  9  1
        21  8  25  1
        22  9  10  2
        23  9  11  1
        24  10  37  1
        25  11  12  1
        26  11  16  1
        27  11  38  1
        28  12  13  1
        29  13  14  1
        30  13  39  1
        31  13  40  1
        32  14  15  1
        33  14  41  1
        34  14  42  1
        35  15  16  1
        36  15  43  1
        37  15  44  1
        38  16  17  1
        39  16  45  1
        40  17  18  1
        41  17  25  1
        42  17  46  1
        43  18  19  2
        44  18  24  1
        45  19  20  1
        46  19  47  1
        47  20  21  2
        48  20  48  1
        49  21  22  1
        50  21  23  1
        51  22  49  1
        52  23  24  2
        53  23  50  1
        54  24  51  1
        55  25  52  1
@<TRIPOS>SUBSTRUCTURE
       1 LIG             1 RESIDUE    0 **** ROOT      0
