@<TRIPOS>MOLECULE
LIG
49 53
SMALL
USER_CHARGES
@<TRIPOS>ATOM
      1 C1           92.577     47.331    266.482 aa            1 LIG       -0.303989
      2 C2           91.615     48.329    266.670 ab            1 LIG        0.281991
      3 C3           91.974     49.527    267.272 ad            1 LIG       -0.243984
      4 C4           93.292     49.796    267.687 ae            1 LIG       -0.002198
      5 C5           93.901     47.533    266.927 af            1 LIG        0.296477
      6 C6           94.276     48.775    267.522 ah            1 LIG        0.246259
      7 N1           95.567     48.964    267.955 ai            1 LIG       -0.481943
      8 C7           96.459     47.953    267.769 aj            1 LIG        0.166674
      9 C8           96.074     46.741    267.221 ak            1 LIG        0.172598
     10 N2           94.807     46.520    266.792 an            1 LIG       -0.486582
     11 C9           93.600     51.103    268.325 ao            1 LIG        0.070473
     12 N3           90.286     48.114    266.311 ap            1 LIG       -0.560593
     13 C10          94.562     51.941    267.798 aq            1 LIG       -0.168051
     14 C11          94.876     53.178    268.368 av            1 LIG       -0.193655
     15 C12          92.905     51.465    269.488 aw            1 LIG       -0.227405
     16 C13          93.190     52.683    270.126 ax            1 LIG        0.072782
     17 C14          94.168     53.548    269.528 ay            1 LIG        0.083661
     18 S1           94.371     55.013    270.472 az            1 LIG       -0.059009
     19 C15          93.213     54.447    271.612 bb            1 LIG       -0.144987
     20 C16          92.667     53.224    271.336 bc            1 LIG       -0.032959
     21 C17          91.671     52.481    272.202 bd            1 LIG       -0.209410
     22 C18          89.717     47.337    265.289 bf            1 LIG        0.149927
     23 C19          88.423     46.795    265.396 bg            1 LIG       -0.024992
     24 C20          87.890     46.082    264.316 bh            1 LIG       -0.272205
     25 C21          88.657     45.931    263.164 bj            1 LIG        0.239110
     26 N4           89.910     46.437    263.040 bk            1 LIG       -0.470031
     27 C22          90.419     47.118    264.090 bl            1 LIG        0.177464
     28 S2           87.481     46.901    266.917 bm            1 LIG        0.919561
     29 C23          88.369     45.658    268.014 bn            1 LIG       -0.370469
     30 O1           86.126     46.412    266.663 bo            1 LIG       -0.547303
     31 O2           87.684     48.247    267.480 bp            1 LIG       -0.547303
     32 H1           92.286     46.382    266.065 bq            1 LIG        0.167614
     33 H2           91.220     50.286    267.426 bs            1 LIG        0.158453
     34 H3           97.480     48.154    268.056 bt            1 LIG        0.058937
     35 H4           96.781     45.940    267.054 bu            1 LIG        0.060630
     36 H5           89.570     48.586    266.868 bv            1 LIG        0.380219
     37 H6           95.101     51.648    266.901 bw            1 LIG        0.164587
     38 H7           95.623     53.812    267.939 bx            1 LIG        0.150910
     39 H8           92.185     50.801    269.916 by            1 LIG        0.145433
     40 H9           93.008     55.068    272.457 bz            1 LIG        0.159389
     41 H10          90.747     52.229    271.690 cb            1 LIG        0.081862
     42 H11          91.413     53.076    273.078 ci            1 LIG        0.081862
     43 H12          92.107     51.553    272.579 cj            1 LIG        0.081862
     44 H13          86.902     45.634    264.387 ck            1 LIG        0.171108
     45 H14          88.269     45.381    262.323 cm            1 LIG        0.077413
     46 H15          91.403     47.536    263.970 cn            1 LIG        0.084896
     47 H16          87.848     45.599    268.965 ct            1 LIG        0.148306
     48 H17          89.393     45.999    268.152 cw            1 LIG        0.148306
     49 H18          88.354     44.691    267.514 da            1 LIG        0.148306
@<TRIPOS>BOND
        1  1  2  2
        2  1  5  1
        3  1  32  1
        4  2  3  1
        5  2  12  1
        6  3  4  2
        7  3  33  1
        8  4  6  1
        9  4  11  1
        10  5  6  2
        11  5  10  1
        12  6  7  1
        13  7  8  2
        14  8  9  1
        15  8  34  1
        16  9  10  2
        17  9  35  1
        18  11  13  2
        19  11  15  1
        20  12  22  1
        21  12  36  1
        22  13  14  1
        23  13  37  1
        24  14  17  2
        25  14  38  1
        26  15  16  2
        27  15  39  1
        28  16  17  1
        29  16  20  1
        30  17  18  1
        31  18  19  1
        32  19  20  2
        33  19  40  1
        34  20  21  1
        35  21  41  1
        36  21  42  1
        37  21  43  1
        38  22  23  2
        39  22  27  1
        40  23  24  1
        41  23  28  1
        42  24  25  2
        43  24  44  1
        44  25  26  1
        45  25  45  1
        46  26  27  2
        47  27  46  1
        48  28  29  1
        49  28  30  2
        50  28  31  2
        51  29  47  1
        52  29  48  1
        53  29  49  1
@<TRIPOS>SUBSTRUCTURE
       1 LIG             1 RESIDUE    0 **** ROOT      0
