@<TRIPOS>MOLECULE
LIG
41 43
SMALL
USER_CHARGES
@<TRIPOS>ATOM
      1 O1           27.890      0.781    -11.283 aa            1 LIG       -0.701812
      2 C1           26.919     -0.028    -11.898 ab            1 LIG        0.203641
      3 C2           26.255      0.648    -13.107 ad            1 LIG        0.289425
      4 C3           24.774      0.362    -13.063 ae            1 LIG       -0.011858
      5 C4           24.551     -0.083    -11.643 af            1 LIG       -0.042417
      6 C5           25.757     -0.314    -10.961 ah            1 LIG       -0.032978
      7 C6           25.730     -0.784     -9.635 ai            1 LIG       -0.009507
      8 C7           24.495     -0.939     -8.999 aj            1 LIG       -0.183929
      9 C8           23.309     -0.755     -9.694 ak            1 LIG       -0.198495
     10 C9           23.338     -0.368    -11.037 an            1 LIG        0.215573
     11 O2           22.231     -0.229    -11.847 ao            1 LIG       -0.313601
     12 C10          21.002     -0.542    -11.350 ap            1 LIG        0.276534
     13 C11          20.503     -1.836    -11.460 aq            1 LIG       -0.281327
     14 C12          19.311     -2.164    -10.821 av            1 LIG        0.225859
     15 F1           18.803     -3.405    -10.926 aw            1 LIG       -0.157946
     16 C13          18.636     -1.209    -10.066 ax            1 LIG       -0.256975
     17 C14          19.103      0.105    -10.007 ay            1 LIG        0.191953
     18 C15          18.420      1.140     -9.261 az            1 LIG        0.222128
     19 C16          20.289      0.430    -10.655 bb            1 LIG       -0.253892
     20 S1           27.178     -1.335     -8.718 bc            1 LIG        0.861199
     21 O3           26.739     -2.432     -7.861 bd            1 LIG       -0.540602
     22 O4           28.284     -1.552     -9.651 bf            1 LIG       -0.540602
     23 C17          27.615      0.051     -7.532 bg            1 LIG       -0.009492
     24 F2           26.393      1.966    -13.019 bh            1 LIG       -0.203062
     25 F3           26.765      0.248    -14.265 bj            1 LIG       -0.203062
     26 N1           17.886      1.970     -8.664 bk            1 LIG       -0.365914
     27 C18          28.284      1.200     -8.264 bl            1 LIG       -0.272187
     28 H1           28.434      1.221    -11.948 bm            1 LIG        0.500857
     29 H2           27.362     -0.973    -12.208 bn            1 LIG        0.086327
     30 H3           24.537     -0.439    -13.758 bo            1 LIG        0.065388
     31 H4           24.181      1.231    -13.349 bp            1 LIG        0.065388
     32 H5           24.447     -1.265     -7.973 bq            1 LIG        0.199781
     33 H6           22.372     -0.949     -9.196 bs            1 LIG        0.190375
     34 H7           21.060     -2.591    -11.995 bt            1 LIG        0.172783
     35 H8           17.764     -1.521     -9.528 bu            1 LIG        0.182435
     36 H9           20.681      1.426    -10.565 bv            1 LIG        0.182468
     37 H10          26.700      0.353     -7.024 bw            1 LIG        0.077245
     38 H11          28.286     -0.385     -6.795 bx            1 LIG        0.077245
     39 H12          28.628      1.964     -7.564 by            1 LIG        0.097686
     40 H13          27.582      1.681     -8.940 bz            1 LIG        0.097686
     41 H14          29.145      0.868     -8.847 cb            1 LIG        0.097686
@<TRIPOS>BOND
        1  1  2  1
        2  1  28  1
        3  2  3  1
        4  2  6  1
        5  2  29  1
        6  3  4  1
        7  3  24  1
        8  3  25  1
        9  4  5  1
        10  4  30  1
        11  4  31  1
        12  5  6  2
        13  5  10  1
        14  6  7  1
        15  7  8  2
        16  7  20  1
        17  8  9  1
        18  8  32  1
        19  9  10  2
        20  9  33  1
        21  10  11  1
        22  11  12  1
        23  12  13  2
        24  12  19  1
        25  13  14  1
        26  13  34  1
        27  14  15  1
        28  14  16  2
        29  16  17  1
        30  16  35  1
        31  17  18  1
        32  17  19  2
        33  18  26  3
        34  19  36  1
        35  20  21  2
        36  20  22  2
        37  20  23  1
        38  23  27  1
        39  23  37  1
        40  23  38  1
        41  27  39  1
        42  27  40  1
        43  27  41  1
@<TRIPOS>SUBSTRUCTURE
       1 LIG             1 RESIDUE    0 **** ROOT      0
