@<TRIPOS>MOLECULE
LIG
66 69
SMALL
USER_CHARGES
@<TRIPOS>ATOM
      1 C1           17.121     -7.641     11.494 aa            1 LIG       -0.316393
      2 N1           15.624     -7.248     11.561 ab            1 LIG        0.262466
      3 C2           15.190     -7.016     13.025 ad            1 LIG       -0.316393
      4 C3           15.286     -6.037     10.653 ae            1 LIG        0.237772
      5 C4           15.369     -6.445      9.169 af            1 LIG        0.059579
      6 N2           14.631     -5.538      8.283 ah            1 LIG       -0.573612
      7 C5           15.205     -4.615      7.495 ai            1 LIG        0.828436
      8 O1           16.417     -4.398      7.478 aj            1 LIG       -0.635594
      9 N3           14.325     -3.989      6.694 ak            1 LIG       -0.547962
     10 C6           14.708     -3.101      5.589 an            1 LIG        0.035232
     11 C7           14.905     -3.780      4.206 ao            1 LIG        0.243720
     12 C8           15.087     -5.322      4.239 ap            1 LIG       -0.070782
     13 C9           15.218     -5.911      2.830 aq            1 LIG       -0.054090
     14 C10          14.107     -5.412      1.878 av            1 LIG        0.048319
     15 C11          12.715     -6.069      2.127 aw            1 LIG        0.119901
     16 C12          12.762     -7.594      2.039 ax            1 LIG        0.073012
     17 C13          13.258     -8.208      0.885 ay            1 LIG       -0.195378
     18 C14          13.332     -9.594      0.801 az            1 LIG       -0.135687
     19 C15          12.911    -10.371      1.876 bb            1 LIG       -0.135681
     20 C16          12.404     -9.769      3.025 bc            1 LIG       -0.135687
     21 C17          12.324     -8.381      3.108 bd            1 LIG       -0.195378
     22 N4           11.715     -5.516      1.214 bf            1 LIG       -0.545544
     23 C18          11.790     -4.179      0.783 bg            1 LIG        0.238267
     24 C19          10.777     -3.712     -0.051 bh            1 LIG       -0.212144
     25 C20          10.813     -2.409     -0.537 bj            1 LIG       -0.184704
     26 C21          11.855     -1.552     -0.178 bk            1 LIG       -0.094366
     27 C22          11.896     -0.133     -0.737 bl            1 LIG        0.686988
     28 F1           12.533     -0.152     -1.908 bm            1 LIG       -0.234482
     29 F2           10.662      0.329     -0.935 bn            1 LIG       -0.234482
     30 F3           12.535      0.704      0.081 bo            1 LIG       -0.234482
     31 C23          12.858     -2.020      0.677 bp            1 LIG       -0.241414
     32 C24          12.862     -3.343      1.143 bq            1 LIG       -0.020253
     33 C25          14.014     -3.871      1.983 bs            1 LIG        0.273382
     34 O2           13.808     -3.464      3.340 bt            1 LIG       -0.487348
     35 H1           17.711     -6.797     11.857 bu            1 LIG        0.154923
     36 H2           17.374     -7.877     10.460 bv            1 LIG        0.154923
     37 H3           17.267     -8.519     12.125 bw            1 LIG        0.154923
     38 H4           15.808     -6.221     13.446 bx            1 LIG        0.154923
     39 H5           15.336     -7.957     13.557 by            1 LIG        0.154923
     40 H6           14.134     -6.744     13.029 bz            1 LIG        0.154923
     41 H7           14.273     -5.724     10.911 cb            1 LIG       -0.003423
     42 H8           15.985     -5.244     10.935 ci            1 LIG       -0.003423
     43 H9           16.416     -6.523      8.864 cj            1 LIG        0.064043
     44 H10          14.942     -7.439      9.036 ck            1 LIG        0.064043
     45 H11          13.629     -5.657      8.239 cm            1 LIG        0.307466
     46 H12          13.335     -4.146      6.811 cn            1 LIG        0.293394
     47 H13          13.946     -2.327      5.517 ct            1 LIG        0.058853
     48 H14          15.625     -2.565      5.844 cw            1 LIG        0.058853
     49 H15          15.803     -3.320      3.782 da            1 LIG        0.058786
     50 H16          15.969     -5.586      4.821 db            1 LIG        0.035833
     51 H17          14.238     -5.785      4.745 dc            1 LIG        0.035833
     52 H18          16.187     -5.624      2.421 dd            1 LIG        0.024568
     53 H19          15.239     -6.999      2.893 de            1 LIG        0.024568
     54 H20          14.425     -5.633      0.857 df            1 LIG        0.017918
     55 H21          12.388     -5.814      3.137 dg            1 LIG        0.053827
     56 H22          13.576     -7.610      0.045 dh            1 LIG        0.138488
     57 H23          13.710    -10.062     -0.095 di            1 LIG        0.146843
     58 H24          12.959    -11.448      1.808 dj            1 LIG        0.149112
     59 H25          12.071    -10.380      3.852 dk            1 LIG        0.146843
     60 H26          11.925     -7.922      4.001 dl            1 LIG        0.138488
     61 H27          10.805     -5.950      1.312 dm            1 LIG        0.339023
     62 H28           9.960     -4.358     -0.338 dn            1 LIG        0.161021
     63 H29          10.032     -2.070     -1.200 do            1 LIG        0.169200
     64 H30          13.677     -1.369      0.948 dp            1 LIG        0.150410
     65 H31          14.937     -3.431      1.599 dq            1 LIG        0.001492
     66 H32          15.079     -8.036     11.226 dr            1 LIG        0.133183
@<TRIPOS>BOND
        1  1  2  1
        2  1  35  1
        3  1  36  1
        4  1  37  1
        5  2  3  1
        6  2  4  1
        7  2  66  1
        8  3  38  1
        9  3  39  1
        10  3  40  1
        11  4  5  1
        12  4  41  1
        13  4  42  1
        14  5  6  1
        15  5  43  1
        16  5  44  1
        17  6  7  1
        18  6  45  1
        19  7  8  2
        20  7  9  1
        21  9  10  1
        22  9  46  1
        23  10  11  1
        24  10  47  1
        25  10  48  1
        26  11  12  1
        27  11  34  1
        28  11  49  1
        29  12  13  1
        30  12  50  1
        31  12  51  1
        32  13  14  1
        33  13  52  1
        34  13  53  1
        35  14  15  1
        36  14  33  1
        37  14  54  1
        38  15  16  1
        39  15  22  1
        40  15  55  1
        41  16  17  2
        42  16  21  1
        43  17  18  1
        44  17  56  1
        45  18  19  2
        46  18  57  1
        47  19  20  1
        48  19  58  1
        49  20  21  2
        50  20  59  1
        51  21  60  1
        52  22  23  1
        53  22  61  1
        54  23  24  2
        55  23  32  1
        56  24  25  1
        57  24  62  1
        58  25  26  2
        59  25  63  1
        60  26  27  1
        61  26  31  1
        62  27  28  1
        63  27  29  1
        64  27  30  1
        65  31  32  2
        66  31  64  1
        67  32  33  1
        68  33  34  1
        69  33  65  1
@<TRIPOS>SUBSTRUCTURE
       1 LIG             1 RESIDUE    0 **** ROOT      0
