@<TRIPOS>MOLECULE
LIG
45 49
SMALL
USER_CHARGES
@<TRIPOS>ATOM
      1 C1           93.287     49.796    267.694 aa            1 LIG       -0.001990
      2 C2           92.569     47.338    266.486 ab            1 LIG       -0.303028
      3 C3           91.615     48.330    266.675 ad            1 LIG        0.283345
      4 C4           91.973     49.534    267.282 ae            1 LIG       -0.242287
      5 C5           93.898     47.535    266.925 af            1 LIG        0.297057
      6 C6           94.269     48.781    267.526 ah            1 LIG        0.246762
      7 N1           95.563     48.961    267.947 ai            1 LIG       -0.483117
      8 C7           96.451     47.956    267.758 aj            1 LIG        0.167201
      9 C8           96.063     46.739    267.205 ak            1 LIG        0.172739
     10 N2           94.799     46.523    266.782 an            1 LIG       -0.484813
     11 C9           89.714     47.344    265.287 ao            1 LIG        0.149608
     12 C10          90.409     47.146    264.089 ap            1 LIG        0.177462
     13 N3           89.910     46.451    263.038 aq            1 LIG       -0.465847
     14 C11          88.654     45.941    263.162 av            1 LIG        0.239746
     15 C12          87.885     46.088    264.316 aw            1 LIG       -0.272110
     16 C13          88.423     46.798    265.398 ax            1 LIG       -0.025101
     17 S1           87.478     46.885    266.922 ay            1 LIG        0.919878
     18 O1           86.128     46.396    266.664 az            1 LIG       -0.547288
     19 C14          88.370     45.629    268.003 bb            1 LIG       -0.370561
     20 O2           87.675     48.229    267.491 bc            1 LIG       -0.547288
     21 N4           90.273     48.119    266.314 bd            1 LIG       -0.560595
     22 C15          93.588     51.103    268.343 bf            1 LIG        0.074792
     23 C16          94.571     51.946    267.813 bg            1 LIG       -0.166103
     24 C17          94.865     53.186    268.402 bh            1 LIG       -0.193812
     25 C18          92.891     51.469    269.489 bj            1 LIG       -0.229575
     26 C19          93.168     52.696    270.091 bk            1 LIG        0.218558
     27 C20          94.150     53.550    269.548 bl            1 LIG        0.076170
     28 S2           94.252     54.983    270.578 bm            1 LIG       -0.049043
     29 C21          93.016     54.304    271.575 bn            1 LIG        0.065792
     30 N5           92.543     53.150    271.216 bo            1 LIG       -0.432380
     31 H1           92.283     46.386    266.049 bp            1 LIG        0.169565
     32 H2           91.213     50.284    267.431 bq            1 LIG        0.161662
     33 H3           97.475     48.149    268.048 bs            1 LIG        0.059770
     34 H4           96.773     45.943    267.042 bt            1 LIG        0.061995
     35 H5           91.411     47.521    263.972 bu            1 LIG        0.086040
     36 H6           88.268     45.385    262.320 bv            1 LIG        0.079084
     37 H7           86.900     45.636    264.381 bw            1 LIG        0.172350
     38 H8           87.846     45.512    268.956 bx            1 LIG        0.148188
     39 H9           89.392     45.976    268.164 by            1 LIG        0.148188
     40 H10          88.373     44.672    267.486 bz            1 LIG        0.148188
     41 H11          89.572     48.593    266.873 cb            1 LIG        0.380868
     42 H12          95.097     51.657    266.924 ci            1 LIG        0.169364
     43 H13          95.621     53.824    267.968 cj            1 LIG        0.154953
     44 H14          92.145     50.808    269.924 ck            1 LIG        0.162333
     45 H15          92.675     54.839    272.446 cm            1 LIG        0.183279
@<TRIPOS>BOND
        1  1  4  2
        2  1  6  1
        3  1  22  1
        4  2  3  2
        5  2  5  1
        6  2  31  1
        7  3  4  1
        8  3  21  1
        9  4  32  1
        10  5  6  2
        11  5  10  1
        12  6  7  1
        13  7  8  2
        14  8  9  1
        15  8  33  1
        16  9  10  2
        17  9  34  1
        18  11  12  2
        19  11  16  1
        20  11  21  1
        21  12  13  1
        22  12  35  1
        23  13  14  2
        24  14  15  1
        25  14  36  1
        26  15  16  2
        27  15  37  1
        28  16  17  1
        29  17  18  2
        30  17  19  1
        31  17  20  2
        32  19  38  1
        33  19  39  1
        34  19  40  1
        35  21  41  1
        36  22  23  2
        37  22  25  1
        38  23  24  1
        39  23  42  1
        40  24  27  2
        41  24  43  1
        42  25  26  2
        43  25  44  1
        44  26  27  1
        45  26  30  1
        46  27  28  1
        47  28  29  1
        48  29  30  2
        49  29  45  1
@<TRIPOS>SUBSTRUCTURE
       1 LIG             1 RESIDUE    0 **** ROOT      0
