@<TRIPOS>MOLECULE
LIG
42 45
SMALL
USER_CHARGES
@<TRIPOS>ATOM
      1 C1           -6.377     12.365    -12.015 aa            1 LIG        0.003837
      2 C2           -6.530     11.820    -10.736 ab            1 LIG       -0.228269
      3 C3           -7.723     10.576    -13.028 ad            1 LIG       -0.205299
      4 C4           -6.985     11.773    -13.130 ae            1 LIG       -0.192695
      5 C5           -7.818     10.012    -11.753 af            1 LIG        0.071482
      6 C6           -7.252     10.620    -10.610 ah            1 LIG        0.054942
      7 C7           -7.610      9.744     -9.512 ai            1 LIG        0.102728
      8 N1           -8.278      8.725     -9.978 aj            1 LIG       -0.418147
      9 N2           -8.413      8.857    -11.298 ak            1 LIG       -0.023914
     10 C8           -7.334      9.893     -8.029 an            1 LIG        0.035569
     11 N3           -4.417     13.675    -11.488 ao            1 LIG       -0.927087
     12 C9           -5.553     13.628    -12.192 ap            1 LIG        0.751469
     13 O1           -5.923     14.518    -12.941 aq            1 LIG       -0.626046
     14 C10          -5.964     10.485     -7.736 av            1 LIG        0.094333
     15 C11          -4.812      9.764     -8.054 aw            1 LIG       -0.193075
     16 C12          -3.550     10.313     -7.806 ax            1 LIG       -0.194468
     17 C13          -3.441     11.587     -7.236 ay            1 LIG        0.106494
     18 C14          -4.593     12.302     -6.917 az            1 LIG       -0.194468
     19 C15          -5.851     11.751     -7.162 bb            1 LIG       -0.193075
     20 C16          -2.097     12.176     -6.967 bc            1 LIG        0.035606
     21 C17          -1.770     13.422     -6.432 bd            1 LIG       -0.192798
     22 N4           -0.428     13.486     -6.385 bf            1 LIG        0.226056
     23 N5            0.173     12.404     -6.829 bg            1 LIG       -0.439560
     24 C18          -0.802     11.597     -7.202 bh            1 LIG       -0.016281
     25 C19           0.391     14.595     -5.903 bj            1 LIG       -0.203669
     26 H1           -6.097     12.291     -9.870 bk            1 LIG        0.165667
     27 H2           -8.179     10.121    -13.897 bl            1 LIG        0.139596
     28 H3           -6.880     12.220    -14.101 bm            1 LIG        0.143159
     29 H4           -8.907      8.153    -11.839 bn            1 LIG        0.284325
     30 H5           -8.104     10.539     -7.595 bo            1 LIG        0.036994
     31 H6           -7.444      8.926     -7.526 bp            1 LIG        0.036994
     32 H7           -3.810     14.482    -11.558 bq            1 LIG        0.404143
     33 H8           -4.120     12.886    -10.933 bs            1 LIG        0.404143
     34 H9           -4.886      8.781     -8.496 bt            1 LIG        0.136125
     35 H10          -2.667      9.747     -8.050 bu            1 LIG        0.136279
     36 H11          -4.517     13.289     -6.478 bv            1 LIG        0.136279
     37 H12          -6.736     12.318     -6.910 bw            1 LIG        0.136125
     38 H13          -2.383     14.245     -6.092 bx            1 LIG        0.150266
     39 H14          -0.606     10.633     -7.622 by            1 LIG        0.142312
     40 H15          -0.243     15.417     -5.564 bz            1 LIG        0.104642
     41 H16           1.030     14.949     -6.707 cb            1 LIG        0.104642
     42 H17           1.011     14.257     -5.080 ci            1 LIG        0.104642
@<TRIPOS>BOND
        1  1  2  2
        2  1  4  1
        3  1  12  1
        4  2  6  1
        5  2  26  1
        6  3  4  2
        7  3  5  1
        8  3  27  1
        9  4  28  1
        10  5  6  2
        11  5  9  1
        12  6  7  1
        13  7  8  2
        14  7  10  1
        15  8  9  1
        16  9  29  1
        17  10  14  1
        18  10  30  1
        19  10  31  1
        20  11  12  1
        21  11  32  1
        22  11  33  1
        23  12  13  2
        24  14  15  2
        25  14  19  1
        26  15  16  1
        27  15  34  1
        28  16  17  2
        29  16  35  1
        30  17  18  1
        31  17  20  1
        32  18  19  2
        33  18  36  1
        34  19  37  1
        35  20  21  2
        36  20  24  1
        37  21  22  1
        38  21  38  1
        39  22  23  1
        40  22  25  1
        41  23  24  2
        42  24  39  1
        43  25  40  1
        44  25  41  1
        45  25  42  1
@<TRIPOS>SUBSTRUCTURE
       1 LIG             1 RESIDUE    0 **** ROOT      0
