@<TRIPOS>MOLECULE
LIG
52 56
SMALL
USER_CHARGES
@<TRIPOS>ATOM
      1 C1           -6.371     12.359    -12.005 aa            1 LIG        0.008299
      2 C2           -6.515     11.806    -10.730 ab            1 LIG       -0.229460
      3 C3           -7.727     10.576    -13.030 ad            1 LIG       -0.206270
      4 C4           -6.992     11.770    -13.122 ae            1 LIG       -0.190801
      5 C5           -7.821     10.009    -11.757 af            1 LIG        0.069823
      6 C6           -7.241     10.618    -10.600 ah            1 LIG        0.056850
      7 C7           -7.613      9.747     -9.512 ai            1 LIG        0.101291
      8 N1           -8.279      8.732     -9.989 aj            1 LIG       -0.423223
      9 N2           -8.414      8.859    -11.300 ak            1 LIG       -0.025297
     10 C8           -7.337      9.887     -8.025 an            1 LIG        0.033866
     11 N3           -4.357     13.720    -11.501 ao            1 LIG       -0.346350
     12 C9           -5.548     13.638    -12.190 ap            1 LIG        0.669538
     13 O1           -5.946     14.527    -12.945 aq            1 LIG       -0.629888
     14 C10          -5.960     10.485     -7.736 av            1 LIG        0.090235
     15 C11          -4.809      9.765     -8.055 aw            1 LIG       -0.195116
     16 C12          -3.552     10.314     -7.805 ax            1 LIG       -0.193250
     17 C13          -3.444     11.589     -7.237 ay            1 LIG        0.108310
     18 C14          -4.595     12.304     -6.914 az            1 LIG       -0.193250
     19 C15          -5.851     11.754     -7.160 bb            1 LIG       -0.195116
     20 C16          -2.101     12.180     -6.973 bc            1 LIG        0.036054
     21 C17          -1.769     13.436     -6.472 bd            1 LIG       -0.191211
     22 N4           -0.434     13.493     -6.412 bf            1 LIG        0.226485
     23 N5            0.169     12.409     -6.809 bg            1 LIG       -0.439856
     24 C18          -0.803     11.591     -7.176 bh            1 LIG       -0.016044
     25 C19           0.382     14.612     -5.958 bj            1 LIG       -0.203626
     26 C20          -3.502     14.908    -11.614 bk            1 LIG        0.031994
     27 C21          -2.198     14.465    -10.924 bl            1 LIG       -0.024049
     28 C22          -2.218     12.942    -10.990 bm            1 LIG       -0.024049
     29 C23          -3.715     12.576    -10.819 bn            1 LIG        0.031994
     30 H1           -6.084     12.289     -9.867 bo            1 LIG        0.161787
     31 H2           -8.182     10.118    -13.903 bp            1 LIG        0.138729
     32 H3           -6.871     12.232    -14.091 bq            1 LIG        0.145064
     33 H4           -8.908      8.152    -11.835 bs            1 LIG        0.282852
     34 H5           -8.102     10.537     -7.594 bt            1 LIG        0.036634
     35 H6           -7.439      8.923     -7.526 bu            1 LIG        0.036634
     36 H7           -4.892      8.782     -8.500 bv            1 LIG        0.135036
     37 H8           -2.661      9.752     -8.052 bw            1 LIG        0.137396
     38 H9           -4.513     13.284     -6.473 bx            1 LIG        0.137396
     39 H10          -6.738     12.315     -6.911 by            1 LIG        0.135036
     40 H11          -2.368     14.276     -6.161 bz            1 LIG        0.153021
     41 H12          -0.600     10.598     -7.561 cb            1 LIG        0.141605
     42 H13           1.042     14.943     -6.763 ci            1 LIG        0.104716
     43 H14           1.003     14.301     -5.116 cj            1 LIG        0.104716
     44 H15          -0.240     15.450     -5.647 ck            1 LIG        0.104716
     45 H16          -3.304     15.151    -12.659 cm            1 LIG        0.053104
     46 H17          -3.945     15.757    -11.094 cn            1 LIG        0.053104
     47 H18          -2.203     14.769     -9.874 ct            1 LIG        0.023591
     48 H19          -1.308     14.909    -11.380 cw            1 LIG        0.023591
     49 H20          -1.832     12.626    -11.965 da            1 LIG        0.023591
     50 H21          -1.551     12.481    -10.252 db            1 LIG        0.023591
     51 H22          -3.942     12.613     -9.755 dc            1 LIG        0.053104
     52 H23          -3.903     11.597    -11.272 dd            1 LIG        0.053104
@<TRIPOS>BOND
        1  1  2  2
        2  1  4  1
        3  1  12  1
        4  2  6  1
        5  2  30  1
        6  3  4  2
        7  3  5  1
        8  3  31  1
        9  4  32  1
        10  5  6  2
        11  5  9  1
        12  6  7  1
        13  7  8  2
        14  7  10  1
        15  8  9  1
        16  9  33  1
        17  10  14  1
        18  10  34  1
        19  10  35  1
        20  11  12  1
        21  11  26  1
        22  11  29  1
        23  12  13  2
        24  14  15  2
        25  14  19  1
        26  15  16  1
        27  15  36  1
        28  16  17  2
        29  16  37  1
        30  17  18  1
        31  17  20  1
        32  18  19  2
        33  18  38  1
        34  19  39  1
        35  20  21  2
        36  20  24  1
        37  21  22  1
        38  21  40  1
        39  22  23  1
        40  22  25  1
        41  23  24  2
        42  24  41  1
        43  25  42  1
        44  25  43  1
        45  25  44  1
        46  26  27  1
        47  26  45  1
        48  26  46  1
        49  27  28  1
        50  27  47  1
        51  27  48  1
        52  28  29  1
        53  28  49  1
        54  28  50  1
        55  29  51  1
        56  29  52  1
@<TRIPOS>SUBSTRUCTURE
       1 LIG             1 RESIDUE    0 **** ROOT      0
