@<TRIPOS>MOLECULE
LIG
38 40
SMALL
USER_CHARGES
@<TRIPOS>ATOM
      1 O1           27.874     -0.433    -11.888 aa            1 LIG       -0.680158
      2 C1           26.953      0.510    -11.469 ab            1 LIG        0.197077
      3 C2           26.212      1.135    -12.650 ad            1 LIG        0.290502
      4 C3           24.881      0.443    -12.797 ae            1 LIG       -0.019278
      5 C4           24.656     -0.101    -11.411 af            1 LIG       -0.038973
      6 C5           25.842     -0.115    -10.658 ah            1 LIG       -0.039994
      7 C6           25.861     -0.714     -9.392 ai            1 LIG       -0.010515
      8 C7           24.667     -1.182     -8.856 aj            1 LIG       -0.182880
      9 C8           23.496     -1.164     -9.602 ak            1 LIG       -0.205320
     10 C9           23.487     -0.645    -10.896 an            1 LIG        0.221315
     11 O2           22.396     -0.629    -11.742 ao            1 LIG       -0.306460
     12 C10          21.151     -0.806    -11.211 ap            1 LIG        0.273946
     13 C11          20.514     -2.035    -11.357 aq            1 LIG       -0.275397
     14 C12          19.286     -2.246    -10.743 av            1 LIG        0.227942
     15 C13          18.687     -1.228     -9.998 aw            1 LIG       -0.253825
     16 C14          19.294      0.028     -9.914 ax            1 LIG        0.192838
     17 C15          18.668      1.133     -9.222 ay            1 LIG        0.222187
     18 C16          20.543      0.221    -10.501 az            1 LIG       -0.251589
     19 S1           27.354     -0.932     -8.420 bb            1 LIG        0.855422
     20 O3           27.086     -2.031     -7.484 bc            1 LIG       -0.506583
     21 O4           28.511     -1.016     -9.314 bd            1 LIG       -0.506583
     22 C17          27.442      0.702     -7.476 bf            1 LIG        0.274839
     23 F1           25.941      2.366    -12.265 bg            1 LIG       -0.200083
     24 F2           26.913      1.166    -13.792 bh            1 LIG       -0.200083
     25 N1           18.171      2.014     -8.664 bj            1 LIG       -0.363641
     26 F3           27.402      1.699     -8.356 bk            1 LIG       -0.180011
     27 F4           26.401      0.758     -6.650 bl            1 LIG       -0.180011
     28 F5           18.686     -3.442    -10.863 bm            1 LIG       -0.154025
     29 H1           28.672      0.015    -12.195 bn            1 LIG        0.496861
     30 H2           27.501      1.265    -10.903 bo            1 LIG        0.098323
     31 H3           24.948     -0.358    -13.529 bp            1 LIG        0.074082
     32 H4           24.098      1.127    -13.120 bq            1 LIG        0.074082
     33 H5           24.640     -1.610     -7.869 bs            1 LIG        0.204028
     34 H6           22.604     -1.608     -9.186 bt            1 LIG        0.179330
     35 H7           20.989     -2.835    -11.891 bu            1 LIG        0.180348
     36 H8           17.780     -1.454     -9.464 bv            1 LIG        0.184979
     37 H9           21.061      1.159    -10.387 bw            1 LIG        0.182676
     38 H10          28.361      0.744     -6.887 bx            1 LIG        0.124634
@<TRIPOS>BOND
        1  1  2  1
        2  1  29  1
        3  2  3  1
        4  2  6  1
        5  2  30  1
        6  3  4  1
        7  3  23  1
        8  3  24  1
        9  4  5  1
        10  4  31  1
        11  4  32  1
        12  5  6  2
        13  5  10  1
        14  6  7  1
        15  7  8  2
        16  7  19  1
        17  8  9  1
        18  8  33  1
        19  9  10  2
        20  9  34  1
        21  10  11  1
        22  11  12  1
        23  12  13  2
        24  12  18  1
        25  13  14  1
        26  13  35  1
        27  14  15  2
        28  14  28  1
        29  15  16  1
        30  15  36  1
        31  16  17  1
        32  16  18  2
        33  17  25  3
        34  18  37  1
        35  19  20  2
        36  19  21  2
        37  19  22  1
        38  22  26  1
        39  22  27  1
        40  22  38  1
@<TRIPOS>SUBSTRUCTURE
       1 LIG             1 RESIDUE    0 **** ROOT      0
