@<TRIPOS>MOLECULE
LIG
40 42
SMALL
USER_CHARGES
@<TRIPOS>ATOM
      1 N1           24.540     41.399      2.953 aa            1 LIG       -0.489623
      2 C1           24.805     42.581      2.109 ab            1 LIG        0.059671
      3 C2           25.887     43.486      2.741 ad            1 LIG       -0.138432
      4 C3           27.196     42.711      3.006 ae            1 LIG        0.699368
      5 C4           26.879     41.417      3.776 af            1 LIG       -0.138432
      6 C5           25.766     40.592      3.101 ah            1 LIG        0.059671
      7 C6           21.015     40.722      4.952 ai            1 LIG       -0.098189
      8 C7           21.162     41.773      4.058 aj            1 LIG        0.234637
      9 N2           22.321     42.023      3.409 ak            1 LIG       -0.625200
     10 C8           23.368     41.198      3.678 an            1 LIG        0.781484
     11 N3           23.324     40.166      4.571 ao            1 LIG       -0.654013
     12 C9           22.146     39.936      5.196 ap            1 LIG        0.598144
     13 N4           22.103     38.867      6.081 aq            1 LIG       -0.956976
     14 N5           28.090     43.596      3.900 av            1 LIG       -1.096238
     15 C10          27.964     42.418      1.700 aw            1 LIG       -0.389188
     16 H1           25.099     42.250      1.114 ax            1 LIG        0.077344
     17 H2           23.913     43.186      1.955 ay            1 LIG        0.077344
     18 H3           25.469     43.924      3.650 az            1 LIG        0.056369
     19 H4           26.075     44.341      2.090 bb            1 LIG        0.056369
     20 H5           26.540     41.648      4.777 bc            1 LIG        0.056369
     21 H6           27.773     40.805      3.900 bd            1 LIG        0.056369
     22 H7           26.087     40.260      2.115 bf            1 LIG        0.077344
     23 H8           25.590     39.680      3.667 bg            1 LIG        0.077344
     24 H9           28.976     43.147      4.072 bh            1 LIG        0.473403
     25 H10          27.370     41.821      1.004 bj            1 LIG        0.112072
     26 H11          28.880     41.854      1.890 bk            1 LIG        0.112072
     27 H12          28.230     43.336      1.177 bl            1 LIG        0.112072
     28 H13          28.251     44.472      3.409 bm            1 LIG        0.473403
     29 H14          22.963     38.359      6.265 bn            1 LIG        0.415841
     30 H15          20.346     42.447      3.857 bo            1 LIG        0.073352
     31 H16          21.251     38.671      6.582 bp            1 LIG        0.415841
     32 C11          19.690     40.489      5.542 bq            1 LIG        0.059413
     33 C12          18.544     40.017      4.926 bs            1 LIG       -0.211339
     34 C13          17.454     39.974      5.786 bt            1 LIG       -0.173916
     35 C14          17.775     40.451      7.040 bu            1 LIG        0.005678
     36 S1           19.437     40.875      7.209 bv            1 LIG       -0.017188
     37 H17          18.505     39.686      3.898 bw            1 LIG        0.167795
     38 H18          16.477     39.624      5.494 bx            1 LIG        0.173837
     39 Cl1          16.732     40.679      8.352 by            1 LIG       -0.047274
     40 H19          27.653     43.810      4.784 bz            1 LIG        0.473403
@<TRIPOS>BOND
        1  1  2  1
        2  1  6  1
        3  1  10  1
        4  2  3  1
        5  2  16  1
        6  2  17  1
        7  3  4  1
        8  3  18  1
        9  3  19  1
        10  4  5  1
        11  4  14  1
        12  4  15  1
        13  5  6  1
        14  5  20  1
        15  5  21  1
        16  6  22  1
        17  6  23  1
        18  7  8  2
        19  7  12  1
        20  7  32  1
        21  8  9  1
        22  8  30  1
        23  9  10  2
        24  10  11  1
        25  11  12  2
        26  12  13  1
        27  13  29  1
        28  13  31  1
        29  14  24  1
        30  14  28  1
        31  14  40  1
        32  15  25  1
        33  15  26  1
        34  15  27  1
        35  32  33  2
        36  32  36  1
        37  33  34  1
        38  33  37  1
        39  34  35  2
        40  34  38  1
        41  35  36  1
        42  35  39  1
@<TRIPOS>SUBSTRUCTURE
       1 LIG             1 RESIDUE    0 **** ROOT      0
