@<TRIPOS>MOLECULE
LIG
46 50
SMALL
USER_CHARGES
@<TRIPOS>ATOM
      1 C1           -6.393     12.350    -12.012 aa            1 LIG        0.006881
      2 C2           -6.564     11.783    -10.739 ab            1 LIG       -0.227436
      3 C3           -7.736     10.571    -13.033 ad            1 LIG       -0.206028
      4 C4           -6.995     11.757    -13.132 ae            1 LIG       -0.191208
      5 C5           -7.824      9.999    -11.759 af            1 LIG        0.071083
      6 C6           -7.258     10.606    -10.615 ah            1 LIG        0.057447
      7 C7           -7.617      9.739     -9.521 ai            1 LIG        0.101997
      8 N1           -8.271      8.717     -9.988 aj            1 LIG       -0.422619
      9 N2           -8.411      8.849    -11.301 ak            1 LIG       -0.023761
     10 C8           -7.331      9.891     -8.031 an            1 LIG        0.033611
     11 N3           -4.541     13.855    -11.365 ao            1 LIG       -0.342599
     12 C9           -5.593     13.652    -12.184 ap            1 LIG        0.675954
     13 O1           -5.923     14.481    -13.022 aq            1 LIG       -0.612540
     14 C10          -5.951     10.499     -7.731 av            1 LIG        0.085233
     15 C11          -5.867     11.767     -7.152 aw            1 LIG       -0.250298
     16 C12          -4.604     12.310     -6.913 ax            1 LIG        0.058332
     17 C13          -3.439     11.563     -7.245 ay            1 LIG        0.059082
     18 C14          -3.515     10.283     -7.814 az            1 LIG       -0.199950
     19 C15          -4.800      9.776     -8.049 bb            1 LIG       -0.195091
     20 C16          -4.088     13.540     -6.372 bc            1 LIG       -0.015569
     21 N4           -2.785     13.534     -6.377 bd            1 LIG       -0.420686
     22 N5           -2.379     12.375     -6.881 bf            1 LIG        0.199030
     23 C17          -0.949     12.112     -6.982 bg            1 LIG       -0.198453
     24 C18          -3.709     15.046    -11.225 bh            1 LIG       -0.047822
     25 C19          -3.157     14.361     -9.976 bj            1 LIG        0.154197
     26 C20          -4.168     13.242    -10.102 bk            1 LIG       -0.047822
     27 O2           -1.825     13.932    -10.059 bl            1 LIG       -0.683143
     28 H1           -6.204     12.241     -9.880 bm            1 LIG        0.169839
     29 H2           -8.204     10.128    -13.891 bn            1 LIG        0.139306
     30 H3           -6.880     12.218    -14.107 bo            1 LIG        0.148117
     31 H4           -8.901      8.145    -11.836 bp            1 LIG        0.283927
     32 H5           -8.113     10.514     -7.586 bq            1 LIG        0.038399
     33 H6           -7.430      8.929     -7.532 bs            1 LIG        0.038399
     34 H7           -6.751     12.316     -6.904 bt            1 LIG        0.138507
     35 H8           -2.638      9.714     -8.059 bu            1 LIG        0.139603
     36 H9           -4.904      8.793     -8.491 bv            1 LIG        0.139017
     37 H10          -4.644     14.381     -6.001 bw            1 LIG        0.142391
     38 H11          -0.367     12.961     -6.606 bx            1 LIG        0.102486
     39 H12          -0.686     11.944     -8.024 by            1 LIG        0.102486
     40 H13          -0.705     11.233     -6.387 bz            1 LIG        0.102486
     41 H14          -2.966     15.317    -11.974 cb            1 LIG        0.092871
     42 H15          -4.438     15.824    -11.031 ci            1 LIG        0.092871
     43 H16          -3.297     14.953     -9.065 cj            1 LIG        0.054894
     44 H17          -5.022     13.461     -9.480 ck            1 LIG        0.092871
     45 H18          -3.790     12.225    -10.050 cm            1 LIG        0.092871
     46 H19          -1.750     13.425    -10.874 cn            1 LIG        0.470837
@<TRIPOS>BOND
        1  1  2  2
        2  1  4  1
        3  1  12  1
        4  2  6  1
        5  2  28  1
        6  3  4  2
        7  3  5  1
        8  3  29  1
        9  4  30  1
        10  5  6  2
        11  5  9  1
        12  6  7  1
        13  7  8  2
        14  7  10  1
        15  8  9  1
        16  9  31  1
        17  10  14  1
        18  10  32  1
        19  10  33  1
        20  11  12  1
        21  11  24  1
        22  11  26  1
        23  12  13  2
        24  14  15  2
        25  14  19  1
        26  15  16  1
        27  15  34  1
        28  16  17  2
        29  16  20  1
        30  17  18  1
        31  17  22  1
        32  18  19  2
        33  18  35  1
        34  19  36  1
        35  20  21  2
        36  20  37  1
        37  21  22  1
        38  22  23  1
        39  23  38  1
        40  23  39  1
        41  23  40  1
        42  24  25  1
        43  24  41  1
        44  24  42  1
        45  25  26  1
        46  25  27  1
        47  25  43  1
        48  26  44  1
        49  26  45  1
        50  27  46  1
@<TRIPOS>SUBSTRUCTURE
       1 LIG             1 RESIDUE    0 **** ROOT      0
