@<TRIPOS>MOLECULE
LIG
37 39
SMALL
USER_CHARGES
@<TRIPOS>ATOM
      1 C1          -14.534    -14.645    -27.558 aa            1 LIG        0.102086
      2 C2          -15.098    -15.513    -26.610 ab            1 LIG        0.178938
      3 C3          -14.608    -13.266    -27.352 ad            1 LIG       -0.193814
      4 C4          -15.792    -14.987    -25.513 ae            1 LIG       -0.055464
      5 N1          -14.937    -16.904    -26.742 af            1 LIG       -0.485891
      6 C5          -15.258    -12.754    -26.229 ah            1 LIG       -0.136338
      7 C6          -15.870    -13.611    -25.313 ai            1 LIG       -0.182250
      8 C7          -16.450    -15.948    -24.552 aj            1 LIG        0.631516
      9 N2          -16.128    -17.237    -24.819 ak            1 LIG       -0.409644
     10 O1          -17.223    -15.649    -23.648 an            1 LIG       -0.630153
     11 C8          -15.417    -17.744    -25.885 ao            1 LIG        0.333145
     12 C9          -15.277    -19.204    -26.025 ap            1 LIG        0.099911
     13 C10         -14.609    -19.717    -27.142 aq            1 LIG       -0.185433
     14 C11         -14.434    -21.081    -27.292 av            1 LIG       -0.187251
     15 C12         -14.929    -21.966    -26.334 aw            1 LIG        0.058920
     16 C13         -15.625    -21.465    -25.230 ax            1 LIG       -0.187251
     17 C14         -15.796    -20.095    -25.074 ay            1 LIG       -0.185433
     18 C15         -14.588    -23.453    -26.413 az            1 LIG        0.477770
     19 O2          -14.237    -23.891    -27.699 bb            1 LIG       -0.731629
     20 C16         -15.768    -24.378    -26.082 bc            1 LIG       -0.308569
     21 C17         -13.353    -23.678    -25.541 bd            1 LIG       -0.308569
     22 Cl1         -13.715    -15.231    -28.966 bf            1 LIG       -0.110688
     23 H1          -14.153    -12.586    -28.060 bg            1 LIG        0.171404
     24 H2          -15.287    -11.684    -26.080 bh            1 LIG        0.161594
     25 H3          -16.387    -13.209    -24.453 bj            1 LIG        0.177926
     26 H4          -16.594    -17.898    -24.212 bk            1 LIG        0.325220
     27 H5          -14.201    -19.064    -27.902 bl            1 LIG        0.159199
     28 H6          -13.873    -21.440    -28.142 bm            1 LIG        0.163180
     29 H7          -15.993    -22.131    -24.462 bn            1 LIG        0.163180
     30 H8          -16.310    -19.746    -24.190 bo            1 LIG        0.159199
     31 H9          -14.026    -24.828    -27.651 bp            1 LIG        0.464032
     32 H10         -16.675    -24.047    -26.588 bq            1 LIG        0.078526
     33 H11         -15.952    -24.408    -25.010 bs            1 LIG        0.078526
     34 H12         -15.593    -25.416    -26.373 bt            1 LIG        0.078526
     35 H13         -12.550    -22.985    -25.793 bu            1 LIG        0.078526
     36 H14         -12.969    -24.684    -25.692 bv            1 LIG        0.078526
     37 H15         -13.573    -23.558    -24.479 bw            1 LIG        0.078526
@<TRIPOS>BOND
        1  1  2  2
        2  1  3  1
        3  1  22  1
        4  2  4  1
        5  2  5  1
        6  3  6  2
        7  3  23  1
        8  4  7  2
        9  4  8  1
        10  5  11  2
        11  6  7  1
        12  6  24  1
        13  7  25  1
        14  8  9  1
        15  8  10  2
        16  9  11  1
        17  9  26  1
        18  11  12  1
        19  12  13  2
        20  12  17  1
        21  13  14  1
        22  13  27  1
        23  14  15  2
        24  14  28  1
        25  15  16  1
        26  15  18  1
        27  16  17  2
        28  16  29  1
        29  17  30  1
        30  18  19  1
        31  18  20  1
        32  18  21  1
        33  19  31  1
        34  20  32  1
        35  20  33  1
        36  20  34  1
        37  21  35  1
        38  21  36  1
        39  21  37  1
@<TRIPOS>SUBSTRUCTURE
       1 LIG             1 RESIDUE    0 **** ROOT      0
