@<TRIPOS>MOLECULE
LIG
65 68
SMALL
USER_CHARGES
@<TRIPOS>ATOM
      1 C1           16.771     -6.376     12.044 aa            1 LIG       -0.351346
      2 N1           15.751     -7.313     11.348 ab            1 LIG       -0.000438
      3 C2           14.967     -8.103     12.412 ad            1 LIG       -0.351346
      4 C3           14.757     -6.542     10.444 ae            1 LIG       -0.092788
      5 C4           15.537     -5.784      9.410 af            1 LIG        0.205837
      6 O1           14.738     -5.452      8.280 ah            1 LIG       -0.470300
      7 C5           15.265     -4.598      7.412 ai            1 LIG        0.848635
      8 O2           16.503     -4.378      7.316 aj            1 LIG       -0.631038
      9 N2           14.310     -3.982      6.666 ak            1 LIG       -0.536948
     10 C6           14.668     -3.087      5.571 an            1 LIG        0.030255
     11 C7           14.896     -3.775      4.196 ao            1 LIG        0.238354
     12 C8           15.081     -5.319      4.237 ap            1 LIG       -0.064350
     13 C9           15.218     -5.907      2.828 aq            1 LIG       -0.053945
     14 C10          14.100     -5.412      1.883 av            1 LIG        0.048426
     15 C11          12.710     -6.068      2.125 aw            1 LIG        0.122990
     16 C12          12.757     -7.591      2.035 ax            1 LIG        0.074726
     17 C13          12.323     -8.376      3.106 ay            1 LIG       -0.193556
     18 C14          12.400     -9.764      3.021 az            1 LIG       -0.134855
     19 C15          12.903    -10.366      1.870 bb            1 LIG       -0.135154
     20 C16          13.323     -9.590      0.794 bc            1 LIG       -0.134855
     21 C17          13.248     -8.205      0.878 bd            1 LIG       -0.193556
     22 N3           11.730     -5.521      1.186 bf            1 LIG       -0.558524
     23 C18          11.794     -4.180      0.766 bg            1 LIG        0.232867
     24 C19          10.771     -3.710     -0.057 bh            1 LIG       -0.213918
     25 C20          10.810     -2.406     -0.539 bj            1 LIG       -0.181809
     26 C21          11.858     -1.553     -0.191 bk            1 LIG       -0.084368
     27 C22          11.912     -0.139     -0.747 bl            1 LIG        0.687747
     28 F1           10.673      0.336     -0.928 bm            1 LIG       -0.227925
     29 F2           12.563      0.691      0.067 bn            1 LIG       -0.227925
     30 F3           12.529     -0.159     -1.923 bo            1 LIG       -0.227925
     31 C23          12.861     -2.023      0.667 bp            1 LIG       -0.238324
     32 C24          12.861     -3.346      1.133 bq            1 LIG       -0.023773
     33 C25          14.013     -3.868      1.979 bs            1 LIG        0.270934
     34 O3           13.805     -3.461      3.330 bt            1 LIG       -0.479721
     35 H1           16.187     -5.669     12.627 bu            1 LIG        0.180194
     36 H2           17.351     -5.877     11.282 bv            1 LIG        0.180194
     37 H3           17.411     -6.978     12.662 bw            1 LIG        0.180194
     38 H4           14.447     -7.362     12.998 bx            1 LIG        0.180194
     39 H5           15.692     -8.641     13.006 by            1 LIG        0.180194
     40 H6           14.292     -8.763     11.887 bz            1 LIG        0.180194
     41 H7           14.109     -7.270      9.986 cb            1 LIG        0.146867
     42 H8           14.184     -5.901     11.108 ci            1 LIG        0.146867
     43 H9           15.917     -4.847      9.843 cj            1 LIG        0.055263
     44 H10          16.387     -6.365      9.064 ck            1 LIG        0.055263
     45 H11          13.334     -4.203      6.828 cm            1 LIG        0.322712
     46 H12          13.902     -2.315      5.489 cn            1 LIG        0.066624
     47 H13          15.577     -2.540      5.842 ct            1 LIG        0.066624
     48 H14          15.801     -3.323      3.784 cw            1 LIG        0.069188
     49 H15          15.962     -5.586      4.821 da            1 LIG        0.028430
     50 H16          14.232     -5.787      4.738 db            1 LIG        0.028430
     51 H17          16.184     -5.607      2.418 dc            1 LIG        0.020718
     52 H18          15.247     -6.994      2.884 dd            1 LIG        0.020718
     53 H19          14.414     -5.639      0.864 de            1 LIG        0.015774
     54 H20          12.371     -5.815      3.132 df            1 LIG        0.036220
     55 H21          11.936     -7.914      4.002 dg            1 LIG        0.141165
     56 H22          12.069    -10.373      3.851 dh            1 LIG        0.147059
     57 H23          12.950    -11.442      1.804 di            1 LIG        0.147697
     58 H24          13.692    -10.059     -0.104 dj            1 LIG        0.147059
     59 H25          13.563     -7.605      0.037 dk            1 LIG        0.141165
     60 H26          10.919     -6.099      1.008 dl            1 LIG        0.335653
     61 H27           9.950     -4.351     -0.334 dm            1 LIG        0.153992
     62 H28          10.023     -2.060     -1.196 dn            1 LIG        0.163667
     63 H29          13.682     -1.375      0.934 do            1 LIG        0.175662
     64 H30          14.941     -3.434      1.603 dp            1 LIG       -0.000474
     65 H31          16.260     -7.965     10.774 dq            1 LIG        0.334407
@<TRIPOS>BOND
        1  1  2  1
        2  1  35  1
        3  1  36  1
        4  1  37  1
        5  2  3  1
        6  2  4  1
        7  2  65  1
        8  3  38  1
        9  3  39  1
        10  3  40  1
        11  4  5  1
        12  4  41  1
        13  4  42  1
        14  5  6  1
        15  5  43  1
        16  5  44  1
        17  6  7  1
        18  7  8  2
        19  7  9  1
        20  9  10  1
        21  9  45  1
        22  10  11  1
        23  10  46  1
        24  10  47  1
        25  11  12  1
        26  11  34  1
        27  11  48  1
        28  12  13  1
        29  12  49  1
        30  12  50  1
        31  13  14  1
        32  13  51  1
        33  13  52  1
        34  14  15  1
        35  14  33  1
        36  14  53  1
        37  15  16  1
        38  15  22  1
        39  15  54  1
        40  16  17  2
        41  16  21  1
        42  17  18  1
        43  17  55  1
        44  18  19  2
        45  18  56  1
        46  19  20  1
        47  19  57  1
        48  20  21  2
        49  20  58  1
        50  21  59  1
        51  22  23  1
        52  22  60  1
        53  23  24  2
        54  23  32  1
        55  24  25  1
        56  24  61  1
        57  25  26  2
        58  25  62  1
        59  26  27  1
        60  26  31  1
        61  27  28  1
        62  27  29  1
        63  27  30  1
        64  31  32  2
        65  31  63  1
        66  32  33  1
        67  33  34  1
        68  33  64  1
@<TRIPOS>SUBSTRUCTURE
       1 LIG             1 RESIDUE    0 **** ROOT      0
