@<TRIPOS>MOLECULE
LIG
48 51
SMALL
USER_CHARGES
@<TRIPOS>ATOM
      1 C1           12.790      0.811      0.088 aa            1 LIG       -0.351478
      2 C2           11.926     -0.165     -0.756 ab            1 LIG        0.591404
      3 C3           12.494     -0.221     -2.170 ad            1 LIG       -0.351478
      4 C4           10.464      0.333     -0.818 ae            1 LIG       -0.351478
      5 C5           11.895     -1.587     -0.186 af            1 LIG       -0.046878
      6 C6           10.857     -2.470     -0.548 ah            1 LIG       -0.199667
      7 C7           10.801     -3.753     -0.049 ai            1 LIG       -0.221767
      8 C8           11.812     -4.224      0.787 aj            1 LIG        0.221874
      9 C9           12.883     -3.366      1.145 ak            1 LIG       -0.029725
     10 C10          12.877     -2.058      0.677 an            1 LIG       -0.245531
     11 C11          14.029     -3.876      1.993 ao            1 LIG        0.273110
     12 O1           13.804     -3.439      3.337 ap            1 LIG       -0.497367
     13 C12          14.874     -3.783      4.223 aq            1 LIG        0.225552
     14 C13          15.068     -5.320      4.259 av            1 LIG       -0.058446
     15 C14          15.232     -5.897      2.851 aw            1 LIG       -0.057316
     16 C15          14.129     -5.400      1.893 ax            1 LIG        0.051168
     17 C16          12.734     -6.080      2.130 ay            1 LIG        0.130665
     18 C17          12.783     -7.576      1.951 az            1 LIG        0.027268
     19 C18          13.333     -8.224      0.837 bb            1 LIG       -0.198628
     20 C19          13.304     -9.600      0.904 bc            1 LIG       -0.142849
     21 S1           12.553    -10.150      2.359 bd            1 LIG       -0.010891
     22 C20          12.284     -8.507      2.855 bf            1 LIG       -0.188554
     23 N1           11.733     -5.540      1.214 bg            1 LIG       -0.570199
     24 H1           12.877      1.820     -0.320 bh            1 LIG        0.068827
     25 H2           13.785      0.399      0.162 bj            1 LIG        0.068827
     26 H3           12.532      0.887      1.149 bk            1 LIG        0.068827
     27 H4           12.540      0.733     -2.701 bl            1 LIG        0.068827
     28 H5           11.801     -0.873     -2.704 bm            1 LIG        0.068827
     29 H6           13.482     -0.670     -2.207 bn            1 LIG        0.068827
     30 H7            9.776     -0.213     -1.462 bo            1 LIG        0.068827
     31 H8           10.244      1.355     -1.106 bp            1 LIG        0.068827
     32 H9           10.130      0.232      0.217 bq            1 LIG        0.068827
     33 H10          10.070     -2.196     -1.219 bs            1 LIG        0.142877
     34 H11           9.970     -4.389     -0.325 bt            1 LIG        0.129005
     35 H12          13.715     -1.452      0.985 bu            1 LIG        0.153821
     36 H13          14.958     -3.437      1.615 bv            1 LIG        0.004850
     37 H14          15.793     -3.325      3.877 bw            1 LIG        0.014319
     38 H15          14.663     -3.395      5.215 bx            1 LIG        0.014319
     39 H16          15.943     -5.564      4.862 by            1 LIG        0.023933
     40 H17          14.211     -5.776      4.755 bz            1 LIG        0.023933
     41 H18          16.201     -5.611      2.437 cb            1 LIG        0.018147
     42 H19          15.255     -6.984      2.901 ci            1 LIG        0.018147
     43 H20          14.452     -5.596      0.871 cj            1 LIG        0.008937
     44 H21          12.389     -5.805      3.127 ck            1 LIG        0.036356
     45 H22          13.758     -7.690      0.004 cm            1 LIG        0.155449
     46 H23          13.681    -10.303      0.165 cn            1 LIG        0.161773
     47 H24          11.791     -8.309      3.791 ct            1 LIG        0.156131
     48 H25          10.876     -6.066      1.179 cw            1 LIG        0.319774
@<TRIPOS>BOND
        1  1  2  1
        2  1  24  1
        3  1  25  1
        4  1  26  1
        5  2  3  1
        6  2  4  1
        7  2  5  1
        8  3  27  1
        9  3  28  1
        10  3  29  1
        11  4  30  1
        12  4  31  1
        13  4  32  1
        14  5  6  2
        15  5  10  1
        16  6  7  1
        17  6  33  1
        18  7  8  2
        19  7  34  1
        20  8  9  1
        21  8  23  1
        22  9  10  2
        23  9  11  1
        24  10  35  1
        25  11  12  1
        26  11  16  1
        27  11  36  1
        28  12  13  1
        29  13  14  1
        30  13  37  1
        31  13  38  1
        32  14  15  1
        33  14  39  1
        34  14  40  1
        35  15  16  1
        36  15  41  1
        37  15  42  1
        38  16  17  1
        39  16  43  1
        40  17  18  1
        41  17  23  1
        42  17  44  1
        43  18  19  1
        44  18  22  2
        45  19  20  2
        46  19  45  1
        47  20  21  1
        48  20  46  1
        49  21  22  1
        50  22  47  1
        51  23  48  1
@<TRIPOS>SUBSTRUCTURE
       1 LIG             1 RESIDUE    0 **** ROOT      0
