@<TRIPOS>MOLECULE
LIG
37 39
SMALL
USER_CHARGES
@<TRIPOS>ATOM
      1 C1          -15.300    -19.201    -26.026 aa            1 LIG        0.099701
      2 C2          -15.714    -20.087    -25.020 ab            1 LIG       -0.185419
      3 C3          -14.733    -19.720    -27.196 ad            1 LIG       -0.185419
      4 C4          -15.526    -21.455    -25.170 ae            1 LIG       -0.189695
      5 C5          -14.551    -21.086    -27.344 af            1 LIG       -0.189695
      6 N1          -14.976    -16.887    -26.734 ah            1 LIG       -0.479525
      7 C6          -14.931    -21.963    -26.329 ai            1 LIG        0.046688
      8 C7          -14.588    -23.451    -26.418 aj            1 LIG        0.477696
      9 C8          -16.544    -15.969    -24.564 ak            1 LIG        0.638714
     10 N2          -16.176    -17.246    -24.822 an            1 LIG       -0.409156
     11 C9          -15.451    -17.739    -25.885 ao            1 LIG        0.335264
     12 O1          -17.376    -15.704    -23.699 ap            1 LIG       -0.607446
     13 C10         -15.776    -24.359    -26.099 aq            1 LIG       -0.307219
     14 O2          -14.236    -23.897    -27.699 av            1 LIG       -0.728835
     15 C11         -13.351    -23.694    -25.558 aw            1 LIG       -0.307219
     16 C12         -15.151    -15.498    -26.584 ax            1 LIG        0.174162
     17 C13         -15.873    -14.989    -25.498 ay            1 LIG       -0.123336
     18 C14         -15.946    -13.614    -25.280 az            1 LIG        0.175121
     19 C15         -15.333    -12.745    -26.183 bb            1 LIG       -0.210207
     20 C16         -14.658    -13.243    -27.299 bc            1 LIG       -0.202700
     21 C17         -14.567    -14.621    -27.507 bd            1 LIG        0.155567
     22 F1          -13.881    -15.087    -28.578 bf            1 LIG       -0.147677
     23 F2          -16.576    -13.127    -24.190 bg            1 LIG       -0.136279
     24 H1          -16.162    -19.738    -24.100 bh            1 LIG        0.161237
     25 H2          -14.412    -19.072    -28.000 bj            1 LIG        0.161237
     26 H3          -15.808    -22.114    -24.362 bk            1 LIG        0.161204
     27 H4          -14.072    -21.452    -28.240 bl            1 LIG        0.161204
     28 H5          -16.658    -17.916    -24.237 bm            1 LIG        0.330863
     29 H6          -16.662    -24.040    -26.649 bn            1 LIG        0.083031
     30 H7          -16.005    -24.359    -25.035 bo            1 LIG        0.083031
     31 H8          -15.596    -25.405    -26.356 bp            1 LIG        0.083031
     32 H9          -14.113    -24.853    -27.665 bq            1 LIG        0.462765
     33 H10         -12.549    -23.007    -25.824 bs            1 LIG        0.083031
     34 H11         -12.976    -24.708    -25.699 bt            1 LIG        0.083031
     35 H12         -13.560    -23.559    -24.496 bu            1 LIG        0.083031
     36 H13         -15.372    -11.678    -26.018 bv            1 LIG        0.184731
     37 H14         -14.186    -12.559    -27.992 bw            1 LIG        0.185482
@<TRIPOS>BOND
        1  1  2  2
        2  1  3  1
        3  1  11  1
        4  2  4  1
        5  2  24  1
        6  3  5  2
        7  3  25  1
        8  4  7  2
        9  4  26  1
        10  5  7  1
        11  5  27  1
        12  6  11  2
        13  6  16  1
        14  7  8  1
        15  8  13  1
        16  8  14  1
        17  8  15  1
        18  9  10  1
        19  9  12  2
        20  9  17  1
        21  10  11  1
        22  10  28  1
        23  13  29  1
        24  13  30  1
        25  13  31  1
        26  14  32  1
        27  15  33  1
        28  15  34  1
        29  15  35  1
        30  16  17  2
        31  16  21  1
        32  17  18  1
        33  18  19  2
        34  18  23  1
        35  19  20  1
        36  19  36  1
        37  20  21  2
        38  20  37  1
        39  21  22  1
@<TRIPOS>SUBSTRUCTURE
       1 LIG             1 RESIDUE    0 **** ROOT      0
