@<TRIPOS>MOLECULE
LIG
49 53
SMALL
USER_CHARGES
@<TRIPOS>ATOM
      1 C1           -6.428     12.345    -12.018 aa            1 LIG        0.007701
      2 C2           -6.611     11.783    -10.743 ab            1 LIG       -0.226623
      3 C3           -7.740     10.559    -13.048 ad            1 LIG       -0.206078
      4 C4           -7.007     11.753    -13.139 ae            1 LIG       -0.191080
      5 C5           -7.836      9.987    -11.770 af            1 LIG        0.070935
      6 C6           -7.285     10.599    -10.625 ah            1 LIG        0.057058
      7 C7           -7.628      9.731     -9.532 ai            1 LIG        0.102154
      8 N1           -8.283      8.708     -9.997 aj            1 LIG       -0.422570
      9 N2           -8.421      8.837    -11.312 ak            1 LIG       -0.024405
     10 C8           -7.330      9.886     -8.041 an            1 LIG        0.034018
     11 N3           -4.602     13.837    -11.311 ao            1 LIG       -0.343478
     12 C9           -5.623     13.642    -12.180 ap            1 LIG        0.675734
     13 O1           -5.907     14.452    -13.059 aq            1 LIG       -0.609071
     14 C10          -5.947     10.490     -7.730 av            1 LIG        0.086252
     15 C11          -5.863     11.742     -7.120 aw            1 LIG       -0.249502
     16 C12          -4.590     12.256     -6.833 ax            1 LIG        0.060262
     17 C13          -3.430     11.530     -7.212 ay            1 LIG        0.057130
     18 C14          -3.505     10.273     -7.816 az            1 LIG       -0.203714
     19 C15          -4.795      9.770     -8.054 bb            1 LIG       -0.195932
     20 C16          -4.064     13.435     -6.198 bc            1 LIG       -0.012981
     21 N4           -2.766     13.454     -6.261 bd            1 LIG       -0.419288
     22 N5           -2.367     12.334     -6.839 bf            1 LIG        0.196827
     23 C17          -0.944     12.094     -6.988 bg            1 LIG       -0.197398
     24 C18          -4.034     13.000    -10.240 bh            1 LIG       -0.045758
     25 C19          -3.155     14.193     -9.945 bj            1 LIG        0.126652
     26 C20          -3.807     15.044    -11.042 bk            1 LIG       -0.045758
     27 O2           -3.425     14.744     -8.671 bl            1 LIG       -0.411951
     28 C21          -4.801     14.994     -8.340 bm            1 LIG        0.067182
     29 H1           -6.275     12.251     -9.881 bn            1 LIG        0.169669
     30 H2           -8.195     10.112    -13.912 bo            1 LIG        0.139155
     31 H3           -6.880     12.219    -14.108 bp            1 LIG        0.148312
     32 H4           -8.915      8.135    -11.844 bq            1 LIG        0.283579
     33 H5           -8.102     10.517     -7.591 bs            1 LIG        0.037446
     34 H6           -7.424      8.930     -7.527 bt            1 LIG        0.037446
     35 H7           -6.752     12.296     -6.871 bu            1 LIG        0.138804
     36 H8           -2.623      9.710     -8.074 bv            1 LIG        0.134382
     37 H9           -4.902      8.796     -8.503 bw            1 LIG        0.142934
     38 H10          -4.612     14.255     -5.770 bx            1 LIG        0.147135
     39 H11          -0.370     12.949     -6.613 by            1 LIG        0.100962
     40 H12          -0.688     11.937     -8.035 bz            1 LIG        0.100962
     41 H13          -0.693     11.221     -6.392 cb            1 LIG        0.100962
     42 H14          -4.768     12.951     -9.511 ci            1 LIG        0.093044
     43 H15          -3.588     12.019    -10.423 cj            1 LIG        0.093044
     44 H16          -2.091     13.988    -10.014 ck            1 LIG        0.056805
     45 H17          -3.116     15.476    -11.755 cm            1 LIG        0.093044
     46 H18          -4.586     15.724    -10.722 cn            1 LIG        0.093044
     47 H19          -4.765     15.445     -7.380 ct            1 LIG        0.050984
     48 H20          -5.437     14.124     -8.229 cw            1 LIG        0.050984
     49 H21          -5.333     15.692     -8.942 da            1 LIG        0.050984
@<TRIPOS>BOND
        1  1  2  2
        2  1  4  1
        3  1  12  1
        4  2  6  1
        5  2  29  1
        6  3  4  2
        7  3  5  1
        8  3  30  1
        9  4  31  1
        10  5  6  2
        11  5  9  1
        12  6  7  1
        13  7  8  2
        14  7  10  1
        15  8  9  1
        16  9  32  1
        17  10  14  1
        18  10  33  1
        19  10  34  1
        20  11  12  1
        21  11  24  1
        22  11  26  1
        23  12  13  2
        24  14  15  2
        25  14  19  1
        26  15  16  1
        27  15  35  1
        28  16  17  2
        29  16  20  1
        30  17  18  1
        31  17  22  1
        32  18  19  2
        33  18  36  1
        34  19  37  1
        35  20  21  2
        36  20  38  1
        37  21  22  1
        38  22  23  1
        39  23  39  1
        40  23  40  1
        41  23  41  1
        42  24  25  1
        43  24  42  1
        44  24  43  1
        45  25  26  1
        46  25  27  1
        47  25  44  1
        48  26  45  1
        49  26  46  1
        50  27  28  1
        51  28  47  1
        52  28  48  1
        53  28  49  1
@<TRIPOS>SUBSTRUCTURE
       1 LIG             1 RESIDUE    0 **** ROOT      0
