@<TRIPOS>MOLECULE
LIG
46 49
SMALL
USER_CHARGES
@<TRIPOS>ATOM
      1 C1          -14.524    -14.775    -27.540 aa            1 LIG        0.099318
      2 C2          -15.116    -15.586    -26.556 ab            1 LIG        0.173573
      3 C3          -14.613    -13.387    -27.424 ad            1 LIG       -0.262079
      4 C4          -15.851    -14.997    -25.518 ae            1 LIG       -0.054471
      5 N1          -14.951    -16.983    -26.605 af            1 LIG       -0.495024
      6 C5          -15.307    -12.806    -26.368 ah            1 LIG        0.223764
      7 C6          -15.947    -13.605    -25.416 ai            1 LIG       -0.252103
      8 C7          -16.533    -15.908    -24.519 aj            1 LIG        0.602704
      9 N2          -16.178    -17.214    -24.694 ak            1 LIG       -0.401527
     10 O1          -17.348    -15.554    -23.663 an            1 LIG       -0.581934
     11 C8          -15.443    -17.784    -25.719 ao            1 LIG        0.326055
     12 C9          -15.278    -19.259    -25.808 ap            1 LIG        0.109602
     13 C10         -14.771    -19.827    -26.988 aq            1 LIG       -0.184186
     14 C11         -14.632    -21.204    -27.122 av            1 LIG       -0.193821
     15 C12         -14.989    -22.056    -26.073 aw            1 LIG        0.059438
     16 C13         -15.475    -21.498    -24.886 ax            1 LIG       -0.193821
     17 C14         -15.624    -20.117    -24.754 ay            1 LIG       -0.184186
     18 C15         -13.752    -15.355    -28.714 az            1 LIG       -0.251638
     19 F1          -15.351    -11.459    -26.284 bb            1 LIG       -0.154608
     20 C16         -14.942    -23.584    -26.242 bc            1 LIG        0.103320
     21 C17         -13.627    -24.141    -26.846 bd            1 LIG       -0.076151
     22 C18         -13.651    -25.647    -27.271 bf            1 LIG        0.033285
     23 N3          -14.948    -25.998    -27.998 bg            1 LIG       -0.273528
     24 C19         -16.152    -25.597    -27.150 bh            1 LIG        0.033285
     25 C20         -16.150    -24.069    -27.056 bj            1 LIG       -0.076151
     26 H1          -14.133    -12.748    -28.152 bk            1 LIG        0.179719
     27 H2          -16.495    -13.148    -24.605 bl            1 LIG        0.195504
     28 H3          -16.665    -17.841    -24.068 bm            1 LIG        0.325439
     29 H4          -14.499    -19.203    -27.830 bn            1 LIG        0.169452
     30 H5          -14.271    -21.595    -28.061 bo            1 LIG        0.147823
     31 H6          -15.762    -22.135    -24.064 bp            1 LIG        0.147823
     32 H7          -16.017    -19.733    -23.823 bq            1 LIG        0.169452
     33 H8          -14.199    -16.290    -29.048 bs            1 LIG        0.098466
     34 H9          -12.724    -15.551    -28.414 bt            1 LIG        0.098466
     35 H10         -13.734    -14.677    -29.567 bu            1 LIG        0.098466
     36 H11         -15.030    -23.996    -25.234 bv            1 LIG        0.005457
     37 H12         -13.352    -23.541    -27.706 bw            1 LIG        0.062479
     38 H13         -12.828    -23.983    -26.119 bx            1 LIG        0.062479
     39 H14         -13.609    -26.361    -26.463 by            1 LIG        0.088737
     40 H15         -12.898    -25.951    -27.988 bz            1 LIG        0.088737
     41 H16         -14.970    -26.991    -28.195 cb            1 LIG        0.314977
     42 H17         -16.085    -26.088    -26.179 ci            1 LIG        0.088737
     43 H18         -17.020    -25.995    -27.663 cj            1 LIG        0.088737
     44 H19         -16.127    -23.647    -28.062 ck            1 LIG        0.062479
     45 H20         -17.065    -23.701    -26.609 cm            1 LIG        0.062479
     46 H21         -14.983    -25.500    -28.878 cn            1 LIG        0.314977
@<TRIPOS>BOND
        1  1  2  2
        2  1  3  1
        3  1  18  1
        4  2  4  1
        5  2  5  1
        6  3  6  2
        7  3  26  1
        8  4  7  2
        9  4  8  1
        10  5  11  2
        11  6  7  1
        12  6  19  1
        13  7  27  1
        14  8  9  1
        15  8  10  2
        16  9  11  1
        17  9  28  1
        18  11  12  1
        19  12  13  2
        20  12  17  1
        21  13  14  1
        22  13  29  1
        23  14  15  2
        24  14  30  1
        25  15  16  1
        26  15  20  1
        27  16  17  2
        28  16  31  1
        29  17  32  1
        30  18  33  1
        31  18  34  1
        32  18  35  1
        33  20  21  1
        34  20  25  1
        35  20  36  1
        36  21  22  1
        37  21  37  1
        38  21  38  1
        39  22  23  1
        40  22  39  1
        41  22  40  1
        42  23  24  1
        43  23  41  1
        44  23  46  1
        45  24  25  1
        46  24  42  1
        47  24  43  1
        48  25  44  1
        49  25  45  1
@<TRIPOS>SUBSTRUCTURE
       1 LIG             1 RESIDUE    0 **** ROOT      0
