@<TRIPOS>MOLECULE
LIG
41 44
SMALL
USER_CHARGES
@<TRIPOS>ATOM
      1 C1           -6.381     12.369    -12.012 aa            1 LIG        0.000580
      2 C2           -6.511     11.812    -10.736 ab            1 LIG       -0.230343
      3 C3           -7.730     10.582    -13.030 ad            1 LIG       -0.205965
      4 C4           -6.999     11.778    -13.126 ae            1 LIG       -0.193701
      5 C5           -7.825     10.017    -11.754 af            1 LIG        0.070769
      6 C6           -7.241     10.627    -10.601 ah            1 LIG        0.058007
      7 C7           -7.609      9.751     -9.510 ai            1 LIG        0.101505
      8 N1           -8.285      8.740     -9.985 aj            1 LIG       -0.424744
      9 N2           -8.419      8.867    -11.298 ak            1 LIG       -0.023238
     10 C8           -7.322      9.887     -8.024 an            1 LIG        0.033207
     11 N3           -4.383     13.620    -11.493 ao            1 LIG       -0.497663
     12 C9           -3.424     14.728    -11.579 ap            1 LIG       -0.132097
     13 C10          -5.537     13.614    -12.198 aq            1 LIG        0.699088
     14 O1           -5.877     14.516    -12.965 av            1 LIG       -0.634477
     15 C11          -5.952     10.501     -7.727 aw            1 LIG        0.083199
     16 C12          -5.880     11.772     -7.154 ax            1 LIG       -0.251638
     17 C13          -4.613     12.316     -6.912 ay            1 LIG        0.057181
     18 C14          -3.442     11.562     -7.243 az            1 LIG        0.061665
     19 C15          -3.506     10.284     -7.806 bb            1 LIG       -0.197539
     20 C16          -4.793      9.778     -8.042 bc            1 LIG       -0.194799
     21 C17          -4.094     13.546     -6.366 bd            1 LIG       -0.016488
     22 N4           -2.788     13.529     -6.374 bf            1 LIG       -0.421570
     23 N5           -2.383     12.368     -6.882 bg            1 LIG        0.201584
     24 C18          -0.954     12.102     -6.990 bh            1 LIG       -0.199208
     25 H1           -6.056     12.286     -9.879 bj            1 LIG        0.173259
     26 H2           -8.182     10.123    -13.898 bk            1 LIG        0.138464
     27 H3           -6.875     12.238    -14.096 bl            1 LIG        0.140084
     28 H4           -8.914      8.160    -11.833 bm            1 LIG        0.283539
     29 H5           -8.085     10.549     -7.605 bn            1 LIG        0.040619
     30 H6           -7.451      8.940     -7.498 bo            1 LIG        0.040619
     31 H7           -4.115     12.806    -10.957 bp            1 LIG        0.289139
     32 H8           -2.821     14.739    -10.672 bq            1 LIG        0.094020
     33 H9           -3.888     15.711    -11.672 bs            1 LIG        0.094020
     34 H10          -2.720     14.604    -12.405 bt            1 LIG        0.094020
     35 H11          -6.777     12.319     -6.913 bu            1 LIG        0.135444
     36 H12          -2.615      9.713     -8.045 bv            1 LIG        0.141290
     37 H13          -4.899      8.798     -8.480 bw            1 LIG        0.140143
     38 H14          -4.640     14.394     -5.989 bx            1 LIG        0.140199
     39 H15          -0.375     12.948     -6.613 by            1 LIG        0.103943
     40 H16          -0.686     11.939     -8.033 bz            1 LIG        0.103943
     41 H17          -0.704     11.222     -6.396 cb            1 LIG        0.103943
@<TRIPOS>BOND
        1  1  2  2
        2  1  4  1
        3  1  13  1
        4  2  6  1
        5  2  25  1
        6  3  4  2
        7  3  5  1
        8  3  26  1
        9  4  27  1
        10  5  6  2
        11  5  9  1
        12  6  7  1
        13  7  8  2
        14  7  10  1
        15  8  9  1
        16  9  28  1
        17  10  15  1
        18  10  29  1
        19  10  30  1
        20  11  12  1
        21  11  13  1
        22  11  31  1
        23  12  32  1
        24  12  33  1
        25  12  34  1
        26  13  14  2
        27  15  16  2
        28  15  20  1
        29  16  17  1
        30  16  35  1
        31  17  18  2
        32  17  21  1
        33  18  19  1
        34  18  23  1
        35  19  20  2
        36  19  36  1
        37  20  37  1
        38  21  22  2
        39  21  38  1
        40  22  23  1
        41  23  24  1
        42  24  39  1
        43  24  40  1
        44  24  41  1
@<TRIPOS>SUBSTRUCTURE
       1 LIG             1 RESIDUE    0 **** ROOT      0
