@<TRIPOS>MOLECULE
LIG
42 44
SMALL
USER_CHARGES
@<TRIPOS>ATOM
      1 N1           24.535     41.399      2.962 aa            1 LIG       -0.498139
      2 C1           24.790     42.587      2.118 ab            1 LIG        0.060810
      3 C2           25.881     43.486      2.737 ad            1 LIG       -0.138275
      4 C3           27.190     42.718      3.020 ae            1 LIG        0.700099
      5 C4           26.880     41.411      3.777 af            1 LIG       -0.138275
      6 C5           25.761     40.591      3.110 ah            1 LIG        0.060810
      7 C6           19.693     40.525      5.529 ai            1 LIG       -0.076003
      8 C7           19.403     40.816      6.876 aj            1 LIG        0.066313
      9 C8           18.108     40.604      7.370 ak            1 LIG        0.106524
     10 C9           17.117     40.089      6.533 an            1 LIG       -0.195934
     11 C10          17.410     39.782      5.207 ao            1 LIG       -0.139144
     12 C11          18.689     40.020      4.713 ap            1 LIG       -0.184226
     13 C12          21.037     40.749      4.947 aq            1 LIG        0.328179
     14 N2           21.133     41.771      4.059 av            1 LIG       -0.273382
     15 N3           22.294     41.999      3.427 aw            1 LIG       -0.387338
     16 C13          23.360     41.191      3.687 ax            1 LIG        0.782942
     17 N4           23.327     40.164      4.580 ay            1 LIG       -0.646126
     18 C14          22.153     39.946      5.206 az            1 LIG        0.542465
     19 Cl1          17.683     41.010      8.999 bb            1 LIG       -0.095174
     20 Cl2          20.625     41.480      7.917 bc            1 LIG       -0.082361
     21 N5           22.109     38.876      6.094 bd            1 LIG       -0.954627
     22 N6           28.064     43.603      3.922 bf            1 LIG       -1.089057
     23 C15          27.978     42.435      1.722 bg            1 LIG       -0.389625
     24 H1           25.062     42.270      1.112 bh            1 LIG        0.077360
     25 H2           23.892     43.190      1.992 bj            1 LIG        0.077360
     26 H3           25.468     43.938      3.641 bk            1 LIG        0.057484
     27 H4           26.076     44.332      2.076 bl            1 LIG        0.057484
     28 H5           26.555     41.628      4.788 bm            1 LIG        0.057484
     29 H6           27.778     40.802      3.884 bn            1 LIG        0.057484
     30 H7           26.079     40.230      2.134 bo            1 LIG        0.077360
     31 H8           25.585     39.690      3.695 bp            1 LIG        0.077360
     32 H9           16.110     39.955      6.902 bq            1 LIG        0.183544
     33 H10          16.648     39.392      4.552 bs            1 LIG        0.168838
     34 H11          18.895     39.778      3.671 bt            1 LIG        0.160909
     35 H12          22.975     38.379      6.290 bu            1 LIG        0.418352
     36 H13          21.269     38.693      6.621 bv            1 LIG        0.418352
     37 H14          28.933     43.140      4.144 bw            1 LIG        0.470833
     38 H15          27.427     41.774      1.049 bx            1 LIG        0.112560
     39 H16          28.937     41.950      1.928 by            1 LIG        0.112560
     40 H17          28.180     43.354      1.168 bz            1 LIG        0.112560
     41 H18          28.267     44.465      3.421 cb            1 LIG        0.470833
     42 H19          27.592     43.845      4.780 ci            1 LIG        0.470833
@<TRIPOS>BOND
        1  1  2  1
        2  1  6  1
        3  1  16  1
        4  2  3  1
        5  2  24  1
        6  2  25  1
        7  3  4  1
        8  3  26  1
        9  3  27  1
        10  4  5  1
        11  4  22  1
        12  4  23  1
        13  5  6  1
        14  5  28  1
        15  5  29  1
        16  6  30  1
        17  6  31  1
        18  7  8  2
        19  7  12  1
        20  7  13  1
        21  8  9  1
        22  8  20  1
        23  9  10  2
        24  9  19  1
        25  10  11  1
        26  10  32  1
        27  11  12  2
        28  11  33  1
        29  12  34  1
        30  13  14  2
        31  13  18  1
        32  14  15  1
        33  15  16  2
        34  16  17  1
        35  17  18  2
        36  18  21  1
        37  21  35  1
        38  21  36  1
        39  22  37  1
        40  22  41  1
        41  22  42  1
        42  23  38  1
        43  23  39  1
        44  23  40  1
@<TRIPOS>SUBSTRUCTURE
       1 LIG             1 RESIDUE    0 **** ROOT      0
