@<TRIPOS>MOLECULE
LIG
47 51
SMALL
USER_CHARGES
@<TRIPOS>ATOM
      1 C1           -4.257     -3.104     13.569 aa            1 LIG        0.065422
      2 O1           -3.873     -2.361     14.716 ab            1 LIG       -0.353064
      3 C2           -2.525     -2.111     14.817 ad            1 LIG        0.191160
      4 C3           -1.746     -2.870     15.682 ae            1 LIG       -0.222527
      5 C4           -0.390     -2.610     15.814 af            1 LIG       -0.223840
      6 C5            0.221     -1.585     15.087 ah            1 LIG        0.272329
      7 N1            1.604     -1.360     15.323 ai            1 LIG       -0.566964
      8 C6            2.536     -0.446     14.761 aj            1 LIG        0.446242
      9 N2            2.179      0.374     13.726 ak            1 LIG       -0.554970
     10 C7            3.113      1.239     13.217 an            1 LIG        0.211527
     11 C8            4.418      1.284     13.701 ao            1 LIG       -0.118629
     12 N3            4.746      0.488     14.759 ap            1 LIG        0.063109
     13 C9            5.898      0.378     15.486 aq            1 LIG       -0.163875
     14 C10           5.589     -0.525     16.528 av            1 LIG        0.031072
     15 N4            4.377     -1.043     16.373 aw            1 LIG       -0.515425
     16 C11           3.837     -0.393     15.326 ax            1 LIG        0.172613
     17 C12           2.637      2.162     12.120 ay            1 LIG        0.111742
     18 C13           3.545      2.641     11.162 az            1 LIG       -0.193720
     19 C14           3.145      3.462     10.110 bb            1 LIG       -0.191929
     20 C15           1.799      3.816     10.018 bc            1 LIG        0.062528
     21 C16           0.991      4.594      9.120 bd            1 LIG       -0.012409
     22 N5           -0.249      4.605      9.513 bf            1 LIG       -0.401047
     23 N6           -0.337      3.893     10.627 bg            1 LIG       -0.021062
     24 C17           0.885      3.361     10.995 bh            1 LIG        0.071055
     25 C18           1.273      2.541     12.063 bj            1 LIG       -0.262812
     26 C19          -0.555     -0.819     14.191 bk            1 LIG       -0.299663
     27 C20          -1.944     -1.088     14.061 bl            1 LIG        0.202182
     28 O2           -2.752     -0.355     13.206 bm            1 LIG       -0.347659
     29 C21          -2.231      0.646     12.352 bn            1 LIG        0.061355
     30 H1           -5.336     -3.252     13.586 bo            1 LIG        0.054963
     31 H2           -3.789     -4.090     13.559 bp            1 LIG        0.054963
     32 H3           -4.012     -2.581     12.643 bq            1 LIG        0.054963
     33 H4           -2.195     -3.662     16.263 bs            1 LIG        0.154762
     34 H5            0.199     -3.206     16.499 bt            1 LIG        0.144039
     35 H6            1.992     -1.936     16.054 bu            1 LIG        0.364100
     36 H7            5.180      1.962     13.341 bv            1 LIG        0.119210
     37 H8            6.785      0.952     15.276 bw            1 LIG        0.148458
     38 H9            6.231     -0.797     17.351 bx            1 LIG        0.148691
     39 H10           4.587      2.347     11.223 by            1 LIG        0.156398
     40 H11           3.855      3.806      9.382 bz            1 LIG        0.145954
     41 H12           1.302      5.115      8.235 cb            1 LIG        0.151871
     42 H13          -1.226      3.793     11.092 ci            1 LIG        0.283337
     43 H14           0.573      2.216     12.805 cj            1 LIG        0.135428
     44 H15          -0.109     -0.031     13.624 ck            1 LIG        0.196039
     45 H16          -3.050      1.073     11.770 cm            1 LIG        0.058028
     46 H17          -1.509      0.234     11.649 cn            1 LIG        0.058028
     47 H18          -1.781      1.451     12.928 ct            1 LIG        0.058028
@<TRIPOS>BOND
        1  1  2  1
        2  1  30  1
        3  1  31  1
        4  1  32  1
        5  2  3  1
        6  3  4  2
        7  3  27  1
        8  4  5  1
        9  4  33  1
        10  5  6  2
        11  5  34  1
        12  6  7  1
        13  6  26  1
        14  7  8  1
        15  7  35  1
        16  8  9  2
        17  8  16  1
        18  9  10  1
        19  10  11  2
        20  10  17  1
        21  11  12  1
        22  11  36  1
        23  12  13  1
        24  12  16  1
        25  13  14  2
        26  13  37  1
        27  14  15  1
        28  14  38  1
        29  15  16  2
        30  17  18  2
        31  17  25  1
        32  18  19  1
        33  18  39  1
        34  19  20  2
        35  19  40  1
        36  20  21  1
        37  20  24  1
        38  21  22  2
        39  21  41  1
        40  22  23  1
        41  23  24  1
        42  23  42  1
        43  24  25  2
        44  25  43  1
        45  26  27  2
        46  26  44  1
        47  27  28  1
        48  28  29  1
        49  29  45  1
        50  29  46  1
        51  29  47  1
@<TRIPOS>SUBSTRUCTURE
       1 LIG             1 RESIDUE    0 **** ROOT      0
