@<TRIPOS>MOLECULE
LIG
58 61
SMALL
USER_CHARGES
@<TRIPOS>ATOM
      1 C1           16.479     -7.284     11.316 aa            1 LIG       -0.347230
      2 C2           15.353     -6.512     10.682 ab            1 LIG        0.706716
      3 O1           14.342     -6.228     11.325 ad            1 LIG       -0.595169
      4 N1           15.570     -6.154      9.407 ae            1 LIG       -0.544515
      5 C3           14.625     -5.428      8.587 af            1 LIG        0.054419
      6 C4           15.331     -4.631      7.495 ah            1 LIG        0.099369
      7 N2           14.235     -3.968      6.667 ai            1 LIG       -0.327275
      8 C5           14.704     -3.048      5.533 aj            1 LIG        0.080313
      9 C6           14.905     -3.782      4.188 ak            1 LIG        0.247627
     10 C7           15.084     -5.325      4.241 an            1 LIG       -0.072101
     11 C8           15.216     -5.908      2.827 ao            1 LIG       -0.063536
     12 C9           14.096     -5.414      1.885 ap            1 LIG        0.048546
     13 C10          12.705     -6.068      2.128 aq            1 LIG        0.123168
     14 C11          12.752     -7.591      2.033 av            1 LIG        0.070625
     15 C12          12.319     -8.377      3.103 aw            1 LIG       -0.193716
     16 C13          12.395     -9.765      3.018 ax            1 LIG       -0.132824
     17 C14          12.898    -10.365      1.867 ay            1 LIG       -0.132200
     18 C15          13.318     -9.589      0.792 az            1 LIG       -0.132824
     19 C16          13.243     -8.204      0.875 bb            1 LIG       -0.193716
     20 N3           11.732     -5.514      1.185 bc            1 LIG       -0.549055
     21 C17          11.796     -4.165      0.784 bd            1 LIG        0.160656
     22 C18          10.783     -3.679     -0.037 bf            1 LIG        0.142925
     23 F1            9.749     -4.460     -0.316 bg            1 LIG       -0.164665
     24 C19          10.820     -2.384     -0.540 bh            1 LIG       -0.263299
     25 C20          11.867     -1.552     -0.178 bj            1 LIG        0.144124
     26 Br1          11.940      0.225     -0.840 bk            1 LIG       -0.117367
     27 C21          12.871     -2.018      0.670 bl            1 LIG       -0.256451
     28 C22          12.869     -3.340      1.135 bm            1 LIG       -0.033870
     29 C23          14.016     -3.871      1.978 bn            1 LIG        0.272129
     30 O2           13.811     -3.460      3.329 bo            1 LIG       -0.509203
     31 H1           17.286     -7.412     10.596 bp            1 LIG        0.116075
     32 H2           16.121     -8.263     11.627 bq            1 LIG        0.116075
     33 H3           16.868     -6.740     12.176 bs            1 LIG        0.116075
     34 H4           16.462     -6.369      8.984 bt            1 LIG        0.315824
     35 H5           13.930     -6.163      8.168 bu            1 LIG        0.065031
     36 H6           14.042     -4.747      9.204 bv            1 LIG        0.065031
     37 H7           16.017     -3.889      7.898 bw            1 LIG        0.097764
     38 H8           15.849     -5.267      6.773 bx            1 LIG        0.097764
     39 H9           13.613     -4.681      6.312 by            1 LIG        0.305060
     40 H10          13.891     -2.325      5.476 bz            1 LIG        0.081644
     41 H11          15.600     -2.530      5.882 cb            1 LIG        0.081644
     42 H12          15.810     -3.339      3.770 ci            1 LIG        0.050779
     43 H13          15.974     -5.591      4.811 cj            1 LIG        0.027838
     44 H14          14.239     -5.801      4.740 ck            1 LIG        0.027838
     45 H15          16.181     -5.607      2.414 cm            1 LIG        0.039932
     46 H16          15.246     -6.996      2.876 cn            1 LIG        0.039932
     47 H17          14.407     -5.644      0.865 ct            1 LIG        0.012786
     48 H18          12.368     -5.817      3.137 cw            1 LIG        0.044693
     49 H19          11.926     -7.916      3.998 da            1 LIG        0.140833
     50 H20          12.060    -10.375      3.845 db            1 LIG        0.153238
     51 H21          12.944    -11.442      1.801 dc            1 LIG        0.154869
     52 H22          13.684    -10.059     -0.109 dd            1 LIG        0.153238
     53 H23          13.557     -7.606      0.032 de            1 LIG        0.140833
     54 H24          10.953     -6.106      0.933 df            1 LIG        0.357403
     55 H25          10.026     -2.040     -1.189 dg            1 LIG        0.190164
     56 H26          13.683     -1.360      0.929 dh            1 LIG        0.167030
     57 H27          14.941     -3.434      1.600 di            1 LIG        0.013940
     58 H28          13.727     -3.399      7.330 dj            1 LIG        0.305060
@<TRIPOS>BOND
        1  1  2  1
        2  1  31  1
        3  1  32  1
        4  1  33  1
        5  2  3  2
        6  2  4  1
        7  4  5  1
        8  4  34  1
        9  5  6  1
        10  5  35  1
        11  5  36  1
        12  6  7  1
        13  6  37  1
        14  6  38  1
        15  7  8  1
        16  7  39  1
        17  7  58  1
        18  8  9  1
        19  8  40  1
        20  8  41  1
        21  9  10  1
        22  9  30  1
        23  9  42  1
        24  10  11  1
        25  10  43  1
        26  10  44  1
        27  11  12  1
        28  11  45  1
        29  11  46  1
        30  12  13  1
        31  12  29  1
        32  12  47  1
        33  13  14  1
        34  13  20  1
        35  13  48  1
        36  14  15  2
        37  14  19  1
        38  15  16  1
        39  15  49  1
        40  16  17  2
        41  16  50  1
        42  17  18  1
        43  17  51  1
        44  18  19  2
        45  18  52  1
        46  19  53  1
        47  20  21  1
        48  20  54  1
        49  21  22  2
        50  21  28  1
        51  22  23  1
        52  22  24  1
        53  24  25  2
        54  24  55  1
        55  25  26  1
        56  25  27  1
        57  27  28  2
        58  27  56  1
        59  28  29  1
        60  29  30  1
        61  29  57  1
@<TRIPOS>SUBSTRUCTURE
       1 LIG             1 RESIDUE    0 **** ROOT      0
