@<TRIPOS>MOLECULE
LIG
51 54
SMALL
USER_CHARGES
@<TRIPOS>ATOM
      1 C1           93.287     49.794    267.678 aa            1 LIG        0.001006
      2 C2           92.565     47.331    266.482 ab            1 LIG       -0.311973
      3 C3           91.609     48.323    266.673 ad            1 LIG        0.279812
      4 C4           91.972     49.524    267.276 ae            1 LIG       -0.244750
      5 C5           93.896     47.528    266.916 af            1 LIG        0.293955
      6 C6           94.275     48.773    267.511 ah            1 LIG        0.245625
      7 N1           95.564     48.960    267.939 ai            1 LIG       -0.479664
      8 C7           96.453     47.951    267.760 aj            1 LIG        0.165184
      9 C8           96.066     46.736    267.206 ak            1 LIG        0.172093
     10 N2           94.800     46.517    266.781 an            1 LIG       -0.492770
     11 C9           89.713     47.336    265.287 ao            1 LIG        0.147468
     12 C10          90.414     47.127    264.095 ap            1 LIG        0.179767
     13 N3           89.904     46.449    263.037 aq            1 LIG       -0.465142
     14 C11          88.651     45.943    263.163 av            1 LIG        0.240745
     15 C12          87.885     46.087    264.318 aw            1 LIG       -0.271646
     16 C13          88.421     46.796    265.398 ax            1 LIG       -0.024378
     17 S1           87.482     46.892    266.928 ay            1 LIG        0.917879
     18 O1           86.128     46.393    266.670 az            1 LIG       -0.548352
     19 C14          88.370     45.641    268.023 bb            1 LIG       -0.370042
     20 O2           87.677     48.235    267.484 bc            1 LIG       -0.548352
     21 N4           90.271     48.111    266.314 bd            1 LIG       -0.561640
     22 C15          93.599     51.103    268.312 bf            1 LIG        0.073400
     23 C16          92.919     51.507    269.466 bg            1 LIG       -0.252448
     24 C17          93.201     52.723    270.108 bh            1 LIG        0.265018
     25 C18          94.162     53.559    269.522 bj            1 LIG       -0.215410
     26 C19          94.861     53.167    268.380 bk            1 LIG       -0.137001
     27 C20          94.580     51.942    267.780 bl            1 LIG       -0.180632
     28 N5           92.568     53.073    271.329 bm            1 LIG       -0.320063
     29 C21          92.852     54.351    271.976 bn            1 LIG       -0.105532
     30 C22          91.447     52.288    271.845 bo            1 LIG       -0.105532
     31 H1           92.280     46.385    266.047 bp            1 LIG        0.160013
     32 H2           91.212     50.276    267.428 bq            1 LIG        0.156883
     33 H3           97.476     48.149    268.046 bs            1 LIG        0.056937
     34 H4           96.776     45.938    267.039 bt            1 LIG        0.057749
     35 H5           91.411     47.523    263.979 bu            1 LIG        0.091055
     36 H6           88.270     45.385    262.321 bv            1 LIG        0.079243
     37 H7           86.903     45.638    264.388 bw            1 LIG        0.179119
     38 H8           87.842     45.524    268.969 bx            1 LIG        0.148343
     39 H9           89.391     45.989    268.176 by            1 LIG        0.148343
     40 H10          88.371     44.683    267.506 bz            1 LIG        0.148343
     41 H11          89.566     48.589    266.866 cb            1 LIG        0.372210
     42 H12          92.191     50.831    269.881 ci            1 LIG        0.135615
     43 H13          94.419     54.508    269.965 cj            1 LIG        0.135954
     44 H14          95.611     53.815    267.953 ck            1 LIG        0.137437
     45 H15          95.125     51.649    266.894 cm            1 LIG        0.147726
     46 H16          92.342     54.459    272.934 cn            1 LIG        0.083067
     47 H17          92.531     55.170    271.334 ct            1 LIG        0.083067
     48 H18          93.922     54.473    272.149 cw            1 LIG        0.083067
     49 H19          91.123     52.636    272.827 da            1 LIG        0.083067
     50 H20          91.711     51.234    271.940 db            1 LIG        0.083067
     51 H21          90.601     52.361    271.162 dc            1 LIG        0.083067
@<TRIPOS>BOND
        1  1  4  2
        2  1  6  1
        3  1  22  1
        4  2  3  2
        5  2  5  1
        6  2  31  1
        7  3  4  1
        8  3  21  1
        9  4  32  1
        10  5  6  2
        11  5  10  1
        12  6  7  1
        13  7  8  2
        14  8  9  1
        15  8  33  1
        16  9  10  2
        17  9  34  1
        18  11  12  2
        19  11  16  1
        20  11  21  1
        21  12  13  1
        22  12  35  1
        23  13  14  2
        24  14  15  1
        25  14  36  1
        26  15  16  2
        27  15  37  1
        28  16  17  1
        29  17  18  2
        30  17  19  1
        31  17  20  2
        32  19  38  1
        33  19  39  1
        34  19  40  1
        35  21  41  1
        36  22  23  2
        37  22  27  1
        38  23  24  1
        39  23  42  1
        40  24  25  2
        41  24  28  1
        42  25  26  1
        43  25  43  1
        44  26  27  2
        45  26  44  1
        46  27  45  1
        47  28  29  1
        48  28  30  1
        49  29  46  1
        50  29  47  1
        51  29  48  1
        52  30  49  1
        53  30  50  1
        54  30  51  1
@<TRIPOS>SUBSTRUCTURE
       1 LIG             1 RESIDUE    0 **** ROOT      0
