@<TRIPOS>MOLECULE
LIG
40 42
SMALL
USER_CHARGES
@<TRIPOS>ATOM
      1 C1          -15.352    -19.221    -25.968 aa            1 LIG        0.099262
      2 C2          -14.653    -19.708    -27.082 ab            1 LIG       -0.186936
      3 C3          -15.855    -20.123    -25.024 ad            1 LIG       -0.186936
      4 C4          -14.454    -21.064    -27.248 ae            1 LIG       -0.190562
      5 C5          -15.636    -21.485    -25.184 af            1 LIG       -0.190562
      6 N1          -15.053    -16.945    -26.687 ah            1 LIG       -0.492466
      7 C6          -14.935    -21.963    -26.299 ai            1 LIG        0.043636
      8 C7          -14.589    -23.445    -26.425 aj            1 LIG        0.477425
      9 C8          -15.216    -15.561    -26.593 ak            1 LIG        0.171725
     10 C9          -15.903    -15.006    -25.504 an            1 LIG       -0.055778
     11 C10         -15.446    -12.819    -26.360 ao            1 LIG        0.216495
     12 C11         -14.777    -13.355    -27.453 ap            1 LIG       -0.264219
     13 C12         -16.020    -13.623    -25.381 aq            1 LIG       -0.253520
     14 C13         -14.677    -14.736    -27.593 av            1 LIG        0.096454
     15 C14         -16.531    -15.939    -24.489 aw            1 LIG        0.631467
     16 N2          -16.258    -17.244    -24.767 ax            1 LIG       -0.410203
     17 C15         -15.532    -17.767    -25.820 ay            1 LIG        0.330432
     18 O1          -17.241    -15.610    -23.537 az            1 LIG       -0.629475
     19 C16         -15.767    -24.360    -26.094 bb            1 LIG       -0.306676
     20 O2          -14.265    -23.841    -27.741 bc            1 LIG       -0.728515
     21 C17         -13.358    -23.700    -25.556 bd            1 LIG       -0.306676
     22 C18         -13.980    -15.282    -28.828 bf            1 LIG       -0.249753
     23 F1          -15.561    -11.496    -26.280 bg            1 LIG       -0.169765
     24 H1          -14.252    -19.046    -27.838 bh            1 LIG        0.154614
     25 H2          -16.398    -19.794    -24.151 bj            1 LIG        0.154614
     26 H3          -13.894    -21.408    -28.105 bk            1 LIG        0.158521
     27 H4          -15.990    -22.163    -24.421 bl            1 LIG        0.158521
     28 H5          -14.360    -12.689    -28.196 bm            1 LIG        0.171664
     29 H6          -16.546    -13.171    -24.549 bn            1 LIG        0.189191
     30 H7          -16.735    -17.892    -24.154 bo            1 LIG        0.324321
     31 H8          -16.629    -24.055    -26.678 bp            1 LIG        0.082182
     32 H9          -16.007    -24.334    -25.033 bq            1 LIG        0.082182
     33 H10         -15.573    -25.404    -26.347 bs            1 LIG        0.082182
     34 H11         -14.051    -24.782    -27.732 bt            1 LIG        0.462207
     35 H12         -12.519    -23.088    -25.886 bu            1 LIG        0.082182
     36 H13         -13.063    -24.731    -25.629 bv            1 LIG        0.082182
     37 H14         -13.542    -23.478    -24.506 bw            1 LIG        0.082182
     38 H15         -14.071    -14.597    -29.674 bx            1 LIG        0.096132
     39 H16         -14.414    -16.233    -29.134 by            1 LIG        0.096132
     40 H17         -12.920    -15.429    -28.627 bz            1 LIG        0.096132
@<TRIPOS>BOND
        1  1  2  2
        2  1  3  1
        3  1  17  1
        4  2  4  1
        5  2  24  1
        6  3  5  2
        7  3  25  1
        8  4  7  2
        9  4  26  1
        10  5  7  1
        11  5  27  1
        12  6  9  1
        13  6  17  2
        14  7  8  1
        15  8  19  1
        16  8  20  1
        17  8  21  1
        18  9  10  2
        19  9  14  1
        20  10  13  1
        21  10  15  1
        22  11  12  1
        23  11  13  2
        24  11  23  1
        25  12  14  2
        26  12  28  1
        27  13  29  1
        28  14  22  1
        29  15  16  1
        30  15  18  2
        31  16  17  1
        32  16  30  1
        33  19  31  1
        34  19  32  1
        35  19  33  1
        36  20  34  1
        37  21  35  1
        38  21  36  1
        39  21  37  1
        40  22  38  1
        41  22  39  1
        42  22  40  1
@<TRIPOS>SUBSTRUCTURE
       1 LIG             1 RESIDUE    0 **** ROOT      0
