@<TRIPOS>MOLECULE
LIG
61 64
SMALL
USER_CHARGES
@<TRIPOS>ATOM
      1 O1           16.447     -4.411      7.425 aa            1 LIG       -0.662205
      2 C1           15.235     -4.614      7.473 ab            1 LIG        0.852130
      3 N1           14.665     -5.553      8.239 ad            1 LIG       -0.568497
      4 C2           15.387     -6.436      9.159 ae            1 LIG        0.065532
      5 C3           15.267     -6.033     10.646 af            1 LIG       -0.066580
      6 C4           13.823     -5.980     11.163 ah            1 LIG        0.255068
      7 O2           13.157     -4.868     10.588 ai            1 LIG       -0.725882
      8 N2           14.334     -3.982      6.701 aj            1 LIG       -0.568896
      9 C5           14.694     -3.097      5.586 ak            1 LIG        0.038359
     10 C6           14.899     -3.779      4.204 an            1 LIG        0.240447
     11 C7           15.080     -5.322      4.240 ao            1 LIG       -0.062834
     12 C8           15.217     -5.906      2.828 ap            1 LIG       -0.047700
     13 C9           14.098     -5.412      1.883 aq            1 LIG        0.052088
     14 C10          12.707     -6.068      2.126 av            1 LIG        0.129825
     15 C11          12.754     -7.590      2.035 aw            1 LIG        0.080347
     16 C12          12.322     -8.375      3.106 ax            1 LIG       -0.194036
     17 C13          12.399     -9.764      3.020 ay            1 LIG       -0.136384
     18 C14          12.902    -10.365      1.869 az            1 LIG       -0.138166
     19 C15          13.322     -9.589      0.794 bb            1 LIG       -0.136384
     20 C16          13.246     -8.204      0.878 bc            1 LIG       -0.194036
     21 N3           11.730     -5.520      1.185 bd            1 LIG       -0.557672
     22 C17          11.789     -4.178      0.770 bf            1 LIG        0.237432
     23 C18          10.770     -3.709     -0.057 bg            1 LIG       -0.213831
     24 C19          10.810     -2.406     -0.542 bh            1 LIG       -0.185127
     25 C20          11.859     -1.555     -0.190 bj            1 LIG       -0.079934
     26 C21          11.909     -0.138     -0.747 bk            1 LIG        0.682078
     27 F1           10.676      0.331     -0.926 bl            1 LIG       -0.227197
     28 F2           12.566      0.689      0.065 bm            1 LIG       -0.227197
     29 F3           12.532     -0.160     -1.926 bn            1 LIG       -0.227197
     30 C22          12.860     -2.023      0.668 bo            1 LIG       -0.232425
     31 C23          12.860     -3.343      1.135 bp            1 LIG       -0.014885
     32 C24          14.012     -3.870      1.981 bq            1 LIG        0.270159
     33 O3           13.806     -3.461      3.336 bs            1 LIG       -0.483189
     34 H1           13.658     -5.571      8.302 bt            1 LIG        0.301583
     35 H2           14.928     -7.416      9.036 bu            1 LIG        0.057654
     36 H3           16.437     -6.545      8.880 bv            1 LIG        0.057654
     37 H4           15.829     -6.748     11.251 bw            1 LIG        0.040321
     38 H5           15.751     -5.072     10.827 bx            1 LIG        0.040321
     39 H6           13.310     -6.899     10.862 by            1 LIG       -0.001999
     40 H7           13.804     -5.949     12.255 bz            1 LIG       -0.001999
     41 H8           12.355     -4.685     11.088 cb            1 LIG        0.463460
     42 H9           13.353     -4.169      6.835 ci            1 LIG        0.284540
     43 H10          13.920     -2.333      5.508 cj            1 LIG        0.056885
     44 H11          15.599     -2.544      5.848 ck            1 LIG        0.056885
     45 H12          15.803     -3.327      3.788 cm            1 LIG        0.057863
     46 H13          15.960     -5.587      4.826 cn            1 LIG        0.021028
     47 H14          14.230     -5.787      4.743 ct            1 LIG        0.021028
     48 H15          16.184     -5.605      2.419 cw            1 LIG        0.027166
     49 H16          15.248     -6.993      2.884 da            1 LIG        0.027166
     50 H17          14.413     -5.639      0.864 db            1 LIG       -0.008481
     51 H18          12.372     -5.816      3.136 dc            1 LIG        0.025631
     52 H19          11.936     -7.913      4.003 dd            1 LIG        0.144619
     53 H20          12.068    -10.372      3.850 de            1 LIG        0.142446
     54 H21          12.950    -11.442      1.804 df            1 LIG        0.141069
     55 H22          13.690    -10.059     -0.106 dg            1 LIG        0.142446
     56 H23          13.562     -7.605      0.037 dh            1 LIG        0.144619
     57 H24          10.927     -6.103      0.997 di            1 LIG        0.327664
     58 H25           9.948     -4.351     -0.334 dj            1 LIG        0.149674
     59 H26          10.023     -2.061     -1.196 dk            1 LIG        0.164616
     60 H27          13.683     -1.376      0.934 dl            1 LIG        0.162422
     61 H28          14.940     -3.435      1.603 dm            1 LIG        0.000508
@<TRIPOS>BOND
        1  1  2  2
        2  2  3  1
        3  2  8  1
        4  3  4  1
        5  3  34  1
        6  4  5  1
        7  4  35  1
        8  4  36  1
        9  5  6  1
        10  5  37  1
        11  5  38  1
        12  6  7  1
        13  6  39  1
        14  6  40  1
        15  7  41  1
        16  8  9  1
        17  8  42  1
        18  9  10  1
        19  9  43  1
        20  9  44  1
        21  10  11  1
        22  10  33  1
        23  10  45  1
        24  11  12  1
        25  11  46  1
        26  11  47  1
        27  12  13  1
        28  12  48  1
        29  12  49  1
        30  13  14  1
        31  13  32  1
        32  13  50  1
        33  14  15  1
        34  14  21  1
        35  14  51  1
        36  15  16  2
        37  15  20  1
        38  16  17  1
        39  16  52  1
        40  17  18  2
        41  17  53  1
        42  18  19  1
        43  18  54  1
        44  19  20  2
        45  19  55  1
        46  20  56  1
        47  21  22  1
        48  21  57  1
        49  22  23  2
        50  22  31  1
        51  23  24  1
        52  23  58  1
        53  24  25  2
        54  24  59  1
        55  25  26  1
        56  25  30  1
        57  26  27  1
        58  26  28  1
        59  26  29  1
        60  30  31  2
        61  30  60  1
        62  31  32  1
        63  32  33  1
        64  32  61  1
@<TRIPOS>SUBSTRUCTURE
       1 LIG             1 RESIDUE    0 **** ROOT      0
