@<TRIPOS>MOLECULE
LIG
39 41
SMALL
USER_CHARGES
@<TRIPOS>ATOM
      1 N1           27.574      1.562    -11.229 aa            1 LIG       -0.851077
      2 C1           27.154      0.258    -11.691 ab            1 LIG        0.219811
      3 C2           26.509      0.346    -13.078 ad            1 LIG        0.288316
      4 C3           25.029      0.595    -12.845 ae            1 LIG       -0.017441
      5 C4           24.804     -0.060    -11.498 af            1 LIG       -0.036668
      6 C5           26.009     -0.224    -10.809 ah            1 LIG       -0.028099
      7 C6           26.011     -0.778     -9.521 ai            1 LIG       -0.026454
      8 C7           24.796     -1.089     -8.905 aj            1 LIG       -0.185480
      9 C8           23.599     -0.922     -9.591 ak            1 LIG       -0.206689
     10 C9           23.598     -0.419    -10.896 an            1 LIG        0.221062
     11 O1           22.482     -0.284    -11.690 ao            1 LIG       -0.304846
     12 C10          21.245     -0.575    -11.196 ap            1 LIG        0.273700
     13 C11          20.674     -1.829    -11.402 aq            1 LIG       -0.267763
     14 C12          19.424     -2.109    -10.870 av            1 LIG        0.229260
     15 F1           18.851     -3.315    -11.061 aw            1 LIG       -0.152639
     16 C13          18.741     -1.144    -10.143 ax            1 LIG       -0.253680
     17 C14          19.287      0.124     -9.969 ay            1 LIG        0.191469
     18 C15          18.576      1.168     -9.241 az            1 LIG        0.220696
     19 C16          20.546      0.391    -10.469 bb            1 LIG       -0.258421
     20 S1           27.508     -1.081     -8.595 bc            1 LIG        0.792123
     21 O2           28.566     -1.403     -9.553 bd            1 LIG       -0.489228
     22 O3           27.208     -2.047     -7.536 bf            1 LIG       -0.489228
     23 C17          27.894      0.587     -7.788 bg            1 LIG        0.609260
     24 F2           27.053      1.278    -13.869 bh            1 LIG       -0.206413
     25 F3           26.643     -0.831    -13.672 bj            1 LIG       -0.206413
     26 N2           18.016      1.991     -8.667 bk            1 LIG       -0.363033
     27 F4           29.166      0.526     -7.461 bl            1 LIG       -0.182922
     28 F5           27.753      1.612     -8.618 bm            1 LIG       -0.182922
     29 F6           27.111      0.769     -6.733 bn            1 LIG       -0.182922
     30 H1           28.081      1.460    -10.377 bo            1 LIG        0.341172
     31 H2           28.289      1.937    -11.860 bp            1 LIG        0.341172
     32 H3           28.002     -0.442    -11.730 bq            1 LIG        0.098932
     33 H4           24.406      0.188    -13.647 bs            1 LIG        0.072132
     34 H5           24.810      1.660    -12.780 bt            1 LIG        0.072132
     35 H6           24.775     -1.484     -7.900 bu            1 LIG        0.194614
     36 H7           22.685     -1.236     -9.111 bv            1 LIG        0.177985
     37 H8           21.209     -2.595    -11.944 bw            1 LIG        0.193648
     38 H9           17.807     -1.421     -9.707 bx            1 LIG        0.185086
     39 H10          21.005      1.347    -10.264 by            1 LIG        0.169768
@<TRIPOS>BOND
        1  1  2  1
        2  1  30  1
        3  1  31  1
        4  2  3  1
        5  2  6  1
        6  2  32  1
        7  3  4  1
        8  3  24  1
        9  3  25  1
        10  4  5  1
        11  4  33  1
        12  4  34  1
        13  5  6  2
        14  5  10  1
        15  6  7  1
        16  7  8  2
        17  7  20  1
        18  8  9  1
        19  8  35  1
        20  9  10  2
        21  9  36  1
        22  10  11  1
        23  11  12  1
        24  12  13  2
        25  12  19  1
        26  13  14  1
        27  13  37  1
        28  14  15  1
        29  14  16  2
        30  16  17  1
        31  16  38  1
        32  17  18  1
        33  17  19  2
        34  18  26  3
        35  19  39  1
        36  20  21  2
        37  20  22  2
        38  20  23  1
        39  23  27  1
        40  23  28  1
        41  23  29  1
@<TRIPOS>SUBSTRUCTURE
       1 LIG             1 RESIDUE    0 **** ROOT      0
