@<TRIPOS>MOLECULE
LIG
62 65
SMALL
USER_CHARGES
@<TRIPOS>ATOM
      1 C1           16.191     -7.741     11.847 aa            1 LIG        0.058922
      2 N1           15.191     -6.912     11.017 ab            1 LIG       -0.569334
      3 C2           15.917     -5.992     10.005 ad            1 LIG        0.246063
      4 C3           14.857     -5.374      9.099 ae            1 LIG       -0.129551
      5 S1           15.687     -4.188      7.851 af            1 LIG        1.075524
      6 O1           15.960     -2.899      8.496 ah            1 LIG       -0.562000
      7 O2           16.769     -4.905      7.172 ai            1 LIG       -0.562000
      8 N2           14.393     -3.936      6.711 aj            1 LIG       -0.694962
      9 C4           14.729     -3.077      5.549 ak            1 LIG        0.108464
     10 C5           14.909     -3.790      4.194 an            1 LIG        0.246056
     11 C6           15.080     -5.326      4.252 ao            1 LIG       -0.068717
     12 C7           15.218     -5.910      2.836 ap            1 LIG       -0.054096
     13 C8           14.104     -5.415      1.883 aq            1 LIG        0.047120
     14 C9           12.711     -6.069      2.121 av            1 LIG        0.121795
     15 C10          12.759     -7.593      2.037 aw            1 LIG        0.072793
     16 C11          12.326     -8.376      3.108 ax            1 LIG       -0.200060
     17 C12          12.403     -9.765      3.023 ay            1 LIG       -0.136037
     18 C13          12.908    -10.367      1.873 az            1 LIG       -0.135011
     19 C14          13.330     -9.593      0.798 bb            1 LIG       -0.136037
     20 C15          13.253     -8.207      0.881 bc            1 LIG       -0.200060
     21 N3           11.737     -5.523      1.176 bd            1 LIG       -0.547272
     22 C16          11.794     -4.183      0.761 bf            1 LIG        0.241977
     23 C17          10.774     -3.710     -0.057 bg            1 LIG       -0.210248
     24 C18          10.809     -2.405     -0.540 bh            1 LIG       -0.183058
     25 C19          11.858     -1.554     -0.186 bj            1 LIG       -0.093305
     26 C20          11.904     -0.135     -0.746 bk            1 LIG        0.685274
     27 F1           10.670      0.335     -0.931 bl            1 LIG       -0.235439
     28 F2           12.554      0.694      0.071 bm            1 LIG       -0.235439
     29 F3           12.532     -0.155     -1.921 bn            1 LIG       -0.235439
     30 C21          12.859     -2.022      0.669 bo            1 LIG       -0.250540
     31 C22          12.866     -3.344      1.131 bp            1 LIG       -0.016248
     32 C23          14.016     -3.872      1.978 bq            1 LIG        0.270335
     33 O3           13.809     -3.470      3.334 bs            1 LIG       -0.475654
     34 H1           15.608     -8.319     12.559 bt            1 LIG        0.087811
     35 H2           16.842     -7.018     12.336 bu            1 LIG        0.087811
     36 H3           16.725     -8.367     11.132 bv            1 LIG        0.087811
     37 H4           14.547     -7.526     10.531 bw            1 LIG        0.386049
     38 H5           16.485     -5.261     10.579 bx            1 LIG        0.083170
     39 H6           16.603     -6.640      9.459 by            1 LIG        0.083170
     40 H7           14.300     -6.118      8.532 bz            1 LIG        0.116946
     41 H8           14.133     -4.803      9.682 cb            1 LIG        0.116946
     42 H9           13.946     -4.816      6.439 ci            1 LIG        0.402527
     43 H10          13.960     -2.309      5.448 cj            1 LIG        0.051305
     44 H11          15.638     -2.543      5.825 ck            1 LIG        0.051305
     45 H12          15.808     -3.335      3.772 cm            1 LIG        0.036118
     46 H13          15.958     -5.590      4.842 cn            1 LIG        0.034068
     47 H14          14.227     -5.783      4.756 ct            1 LIG        0.034068
     48 H15          16.186     -5.615      2.423 cw            1 LIG        0.038978
     49 H16          15.246     -6.997      2.893 da            1 LIG        0.038978
     50 H17          14.422     -5.636      0.863 db            1 LIG        0.005046
     51 H18          12.366     -5.817      3.128 dc            1 LIG        0.051804
     52 H19          11.934     -7.917      4.004 dd            1 LIG        0.154478
     53 H20          12.071    -10.374      3.852 de            1 LIG        0.143956
     54 H21          12.951    -11.445      1.804 df            1 LIG        0.146022
     55 H22          13.696    -10.060     -0.103 dg            1 LIG        0.143956
     56 H23          13.566     -7.609      0.039 dh            1 LIG        0.154478
     57 H24          10.896     -6.078      1.067 di            1 LIG        0.341790
     58 H25           9.951     -4.352     -0.336 dj            1 LIG        0.164672
     59 H26          10.022     -2.064     -1.196 dk            1 LIG        0.171540
     60 H27          13.684     -1.374      0.934 dl            1 LIG        0.149553
     61 H28          14.945     -3.437      1.600 dm            1 LIG        0.005776
     62 H29          14.636     -6.328     11.640 dn            1 LIG        0.386049
@<TRIPOS>BOND
        1  1  2  1
        2  1  34  1
        3  1  35  1
        4  1  36  1
        5  2  3  1
        6  2  37  1
        7  2  62  1
        8  3  4  1
        9  3  38  1
        10  3  39  1
        11  4  5  1
        12  4  40  1
        13  4  41  1
        14  5  6  2
        15  5  7  2
        16  5  8  1
        17  8  9  1
        18  8  42  1
        19  9  10  1
        20  9  43  1
        21  9  44  1
        22  10  11  1
        23  10  33  1
        24  10  45  1
        25  11  12  1
        26  11  46  1
        27  11  47  1
        28  12  13  1
        29  12  48  1
        30  12  49  1
        31  13  14  1
        32  13  32  1
        33  13  50  1
        34  14  15  1
        35  14  21  1
        36  14  51  1
        37  15  16  2
        38  15  20  1
        39  16  17  1
        40  16  52  1
        41  17  18  2
        42  17  53  1
        43  18  19  1
        44  18  54  1
        45  19  20  2
        46  19  55  1
        47  20  56  1
        48  21  22  1
        49  21  57  1
        50  22  23  2
        51  22  31  1
        52  23  24  1
        53  23  58  1
        54  24  25  2
        55  24  59  1
        56  25  26  1
        57  25  30  1
        58  26  27  1
        59  26  28  1
        60  26  29  1
        61  30  31  2
        62  30  60  1
        63  31  32  1
        64  32  33  1
        65  32  61  1
@<TRIPOS>SUBSTRUCTURE
       1 LIG             1 RESIDUE    0 **** ROOT      0
