@<TRIPOS>MOLECULE
LIG
38 40
SMALL
USER_CHARGES
@<TRIPOS>ATOM
      1 C1           -6.389     12.371    -12.004 aa            1 LIG        0.001121
      2 C2           -6.522     11.810    -10.734 ab            1 LIG       -0.226952
      3 C3           -7.727     10.578    -13.033 ad            1 LIG       -0.204819
      4 C4           -7.000     11.777    -13.126 ae            1 LIG       -0.193882
      5 C5           -7.824     10.011    -11.759 af            1 LIG        0.070619
      6 C6           -7.245     10.624    -10.600 ah            1 LIG        0.057870
      7 C7           -7.616      9.748     -9.513 ai            1 LIG        0.101578
      8 N1           -8.282      8.733     -9.990 aj            1 LIG       -0.419077
      9 N2           -8.415      8.861    -11.301 ak            1 LIG       -0.023816
     10 C8           -7.338      9.887     -8.025 an            1 LIG        0.034024
     11 N3           -4.412     13.645    -11.446 ao            1 LIG       -0.497458
     12 C9           -3.464     14.768    -11.503 ap            1 LIG       -0.132933
     13 C10          -5.549     13.624    -12.181 aq            1 LIG        0.698481
     14 O1           -5.878     14.520    -12.961 av            1 LIG       -0.629186
     15 C11          -5.960     10.482     -7.736 aw            1 LIG        0.094553
     16 C12          -5.846     11.754     -7.160 ax            1 LIG       -0.258365
     17 C13          -4.582     12.301     -6.916 ay            1 LIG        0.147089
     18 C14          -3.433     11.575     -7.240 az            1 LIG       -0.201508
     19 C15          -3.546     10.307     -7.807 bb            1 LIG       -0.139610
     20 C16          -4.807      9.760     -8.056 bc            1 LIG       -0.200271
     21 C17          -4.457     13.681     -6.301 bd            1 LIG       -0.240892
     22 H1           -6.074     12.289     -9.873 bf            1 LIG        0.167472
     23 H2           -8.173     10.113    -13.906 bg            1 LIG        0.138827
     24 H3           -6.871     12.237    -14.095 bh            1 LIG        0.141089
     25 H4           -8.910      8.154    -11.836 bj            1 LIG        0.284002
     26 H5           -8.097     10.547     -7.600 bk            1 LIG        0.036009
     27 H6           -7.447      8.928     -7.518 bl            1 LIG        0.036009
     28 H7           -4.146     12.836    -10.899 bm            1 LIG        0.288327
     29 H8           -2.447     14.402    -11.342 bn            1 LIG        0.094475
     30 H9           -3.670     15.463    -10.691 bo            1 LIG        0.094475
     31 H10          -3.449     15.323    -12.445 bp            1 LIG        0.094475
     32 H11          -6.733     12.317     -6.912 bq            1 LIG        0.145889
     33 H12          -2.455     11.995     -7.053 bs            1 LIG        0.134875
     34 H13          -2.655      9.746     -8.053 bt            1 LIG        0.135315
     35 H14          -4.891      8.778     -8.500 bu            1 LIG        0.135362
     36 H15          -4.489     14.447     -7.075 bv            1 LIG        0.078944
     37 H16          -3.525     13.781     -5.742 bw            1 LIG        0.078944
     38 H17          -5.268     13.863     -5.599 bx            1 LIG        0.078944
@<TRIPOS>BOND
        1  1  2  2
        2  1  4  1
        3  1  13  1
        4  2  6  1
        5  2  22  1
        6  3  4  2
        7  3  5  1
        8  3  23  1
        9  4  24  1
        10  5  6  2
        11  5  9  1
        12  6  7  1
        13  7  8  2
        14  7  10  1
        15  8  9  1
        16  9  25  1
        17  10  15  1
        18  10  26  1
        19  10  27  1
        20  11  12  1
        21  11  13  1
        22  11  28  1
        23  12  29  1
        24  12  30  1
        25  12  31  1
        26  13  14  2
        27  15  16  2
        28  15  20  1
        29  16  17  1
        30  16  32  1
        31  17  18  2
        32  17  21  1
        33  18  19  1
        34  18  33  1
        35  19  20  2
        36  19  34  1
        37  20  35  1
        38  21  36  1
        39  21  37  1
        40  21  38  1
@<TRIPOS>SUBSTRUCTURE
       1 LIG             1 RESIDUE    0 **** ROOT      0
