@<TRIPOS>MOLECULE
LIG
44 46
SMALL
USER_CHARGES
@<TRIPOS>ATOM
      1 N1           24.554     41.409      2.939 aa            1 LIG       -0.490169
      2 C1           24.816     42.590      2.094 ab            1 LIG        0.057834
      3 C2           25.894     43.488      2.738 ad            1 LIG       -0.134810
      4 C3           27.196     42.709      3.014 ae            1 LIG        0.708970
      5 C4           26.885     41.409      3.782 af            1 LIG       -0.134810
      6 C5           25.778     40.580      3.099 ah            1 LIG        0.057834
      7 C6           19.756     40.573      5.601 ai            1 LIG        0.017003
      8 C7           19.455     40.901      6.941 aj            1 LIG        0.040768
      9 C8           18.149     40.698      7.430 ak            1 LIG        0.105807
     10 C9           17.182     40.150      6.599 an            1 LIG       -0.288307
     11 C10          17.534     39.809      5.291 ao            1 LIG        0.293661
     12 C11          18.783     40.033      4.793 ap            1 LIG       -0.262587
     13 C12          21.055     40.771      4.981 aq            1 LIG       -0.125785
     14 C13          21.103     41.774      4.077 av            1 LIG        0.221742
     15 N2           22.253     42.019      3.438 aw            1 LIG       -0.632728
     16 C14          23.402     41.220      3.659 ax            1 LIG        0.784279
     17 N3           23.331     40.200      4.565 ay            1 LIG       -0.659520
     18 C15          22.180     39.947      5.215 az            1 LIG        0.611987
     19 Cl1          17.682     41.143      9.037 bb            1 LIG       -0.100107
     20 Cl2          20.665     41.602      7.949 bc            1 LIG       -0.086601
     21 N4           22.123     38.885      6.102 bd            1 LIG       -0.956650
     22 N5           28.102     43.598      3.892 bf            1 LIG       -1.205129
     23 C16          27.959     42.419      1.711 bg            1 LIG       -0.388593
     24 H1           25.116     42.255      1.102 bh            1 LIG        0.084607
     25 H2           23.921     43.194      1.945 bj            1 LIG        0.084607
     26 H3           25.481     43.929      3.645 bk            1 LIG        0.043013
     27 H4           26.088     44.339      2.084 bl            1 LIG        0.043013
     28 H5           26.554     41.634      4.791 bm            1 LIG        0.043013
     29 H6           27.785     40.801      3.903 bn            1 LIG        0.043013
     30 H7           26.102     40.232      2.120 bo            1 LIG        0.084607
     31 H8           25.581     39.672      3.676 bp            1 LIG        0.084607
     32 H9           16.163     39.980      6.929 bq            1 LIG        0.176094
     33 O1           16.788     39.208      4.452 bs            1 LIG       -0.535953
     34 H10          18.958     39.758      3.759 bt            1 LIG        0.187716
     35 H11          22.988     38.368      6.290 bu            1 LIG        0.414667
     36 H12          21.282     38.698      6.622 bv            1 LIG        0.414667
     37 H13          28.981     43.138      4.053 bw            1 LIG        0.507387
     38 H14          27.355     41.825      1.020 bx            1 LIG        0.113687
     39 H15          28.872     41.850      1.898 by            1 LIG        0.113687
     40 H16          28.227     43.336      1.188 bz            1 LIG        0.113687
     41 H17          28.261     44.466      3.388 cb            1 LIG        0.507387
     42 H18          15.930     38.989      4.900 ci            1 LIG        0.420906
     43 H19          27.664     43.813      4.767 cj            1 LIG        0.507387
     44 H20          20.221     42.365      3.878 ck            1 LIG        0.114113
@<TRIPOS>BOND
        1  1  2  1
        2  1  6  1
        3  1  16  1
        4  2  3  1
        5  2  24  1
        6  2  25  1
        7  3  4  1
        8  3  26  1
        9  3  27  1
        10  4  5  1
        11  4  22  1
        12  4  23  1
        13  5  6  1
        14  5  28  1
        15  5  29  1
        16  6  30  1
        17  6  31  1
        18  7  8  2
        19  7  12  1
        20  7  13  1
        21  8  9  1
        22  8  20  1
        23  9  10  2
        24  9  19  1
        25  10  11  1
        26  10  32  1
        27  11  12  2
        28  11  33  1
        29  12  34  1
        30  13  14  2
        31  13  18  1
        32  14  15  1
        33  14  44  1
        34  15  16  2
        35  16  17  1
        36  17  18  2
        37  18  21  1
        38  21  35  1
        39  21  36  1
        40  22  37  1
        41  22  41  1
        42  22  43  1
        43  23  38  1
        44  23  39  1
        45  23  40  1
        46  33  42  1
@<TRIPOS>SUBSTRUCTURE
       1 LIG             1 RESIDUE    0 **** ROOT      0
