@<TRIPOS>MOLECULE
LIG
62 66
SMALL
USER_CHARGES
@<TRIPOS>ATOM
      1 C1           -4.255     -3.103     13.571 aa            1 LIG        0.064826
      2 O1           -3.874     -2.353     14.717 ab            1 LIG       -0.351728
      3 C2           -2.526     -2.106     14.805 ad            1 LIG        0.191927
      4 C3           -1.750     -2.867     15.680 ae            1 LIG       -0.222241
      5 C4           -0.386     -2.611     15.815 af            1 LIG       -0.223361
      6 C5            0.222     -1.583     15.089 ah            1 LIG        0.271937
      7 N1            1.593     -1.349     15.306 ai            1 LIG       -0.565157
      8 C6            2.545     -0.469     14.754 aj            1 LIG        0.446907
      9 N2            2.218      0.355     13.719 ak            1 LIG       -0.556367
     10 C7            3.123      1.241     13.218 an            1 LIG        0.208937
     11 C8            4.421      1.304     13.717 ao            1 LIG       -0.118578
     12 N3            4.748      0.492     14.765 ap            1 LIG        0.063775
     13 C9            5.890      0.384     15.504 aq            1 LIG       -0.163169
     14 C10           5.572     -0.509     16.518 av            1 LIG        0.031750
     15 N4            4.382     -1.054     16.392 aw            1 LIG       -0.513419
     16 C11           3.833     -0.417     15.325 ax            1 LIG        0.172907
     17 C12           2.656      2.156     12.134 ay            1 LIG        0.114731
     18 C13           3.557      2.628     11.167 az            1 LIG       -0.180697
     19 C14           3.129      3.450     10.128 bb            1 LIG       -0.133500
     20 C15           1.788      3.808     10.032 bc            1 LIG       -0.174938
     21 C16           0.866      3.371     10.989 bd            1 LIG        0.013157
     22 C17           1.314      2.558     12.042 bf            1 LIG       -0.248411
     23 C18          -0.578      3.765     10.896 bg            1 LIG        0.702061
     24 O2           -1.292      3.612      9.909 bh            1 LIG       -0.604064
     25 N5           -1.017      4.314     12.028 bj            1 LIG       -0.494143
     26 C19          -2.372      4.804     12.264 bk            1 LIG        0.215363
     27 C20          -3.419      4.363     11.464 bl            1 LIG       -0.208994
     28 C21          -4.709      4.829     11.688 bm            1 LIG       -0.182302
     29 C22          -4.952      5.736     12.713 bn            1 LIG        0.005841
     30 C23          -3.905      6.177     13.513 bo            1 LIG       -0.182302
     31 C24          -2.615      5.711     13.289 bp            1 LIG       -0.208994
     32 C25          -6.344      6.239     12.955 bq            1 LIG        0.750608
     33 O3           -7.261      6.209     12.139 bs            1 LIG       -0.627437
     34 N6           -6.485      6.736     14.184 bt            1 LIG       -0.927026
     35 C26          -0.566     -0.826     14.211 bu            1 LIG       -0.299958
     36 C27          -1.939     -1.076     14.058 bv            1 LIG        0.202225
     37 O4           -2.699     -0.305     13.202 bw            1 LIG       -0.346615
     38 C28          -2.002      0.675     12.525 bx            1 LIG        0.061449
     39 H1           -3.753     -4.071     13.551 by            1 LIG        0.055720
     40 H2           -4.018     -2.567     12.650 bz            1 LIG        0.055720
     41 H3           -5.331     -3.281     13.589 cb            1 LIG        0.055720
     42 H4           -2.210     -3.653     16.261 ci            1 LIG        0.155959
     43 H5            0.191     -3.210     16.503 cj            1 LIG        0.145028
     44 H6            2.025     -1.886     16.047 ck            1 LIG        0.365495
     45 H7            5.170      2.003     13.372 cm            1 LIG        0.119707
     46 H8            6.766      0.974     15.290 cn            1 LIG        0.150530
     47 H9            6.209     -0.833     17.330 ct            1 LIG        0.151080
     48 H10           4.593      2.331     11.200 cw            1 LIG        0.162531
     49 H11           3.834      3.794      9.384 da            1 LIG        0.154875
     50 H12           1.456      4.435      9.217 db            1 LIG        0.171219
     51 H13           0.605      2.213     12.781 dc            1 LIG        0.137564
     52 H14          -0.465      4.459     12.862 dd            1 LIG        0.303095
     53 H15          -3.230      3.657     10.666 de            1 LIG        0.167302
     54 H16          -5.524      4.486     11.065 df            1 LIG        0.158945
     55 H17          -4.094      6.883     14.311 dg            1 LIG        0.158945
     56 H18          -1.800      6.054     13.912 dh            1 LIG        0.167302
     57 H19          -7.335      7.129     14.564 di            1 LIG        0.405126
     58 H20          -5.760      6.780     14.885 dj            1 LIG        0.405126
     59 H21          -0.155     -0.017     13.634 dk            1 LIG        0.194833
     60 H22          -2.685      1.226     11.879 dl            1 LIG        0.057727
     61 H23          -1.222      0.213     11.920 dm            1 LIG        0.057727
     62 H24          -1.548      1.359     13.242 dn            1 LIG        0.057727
@<TRIPOS>BOND
        1  1  2  1
        2  1  39  1
        3  1  40  1
        4  1  41  1
        5  2  3  1
        6  3  4  2
        7  3  36  1
        8  4  5  1
        9  4  42  1
        10  5  6  2
        11  5  43  1
        12  6  7  1
        13  6  35  1
        14  7  8  1
        15  7  44  1
        16  8  9  2
        17  8  16  1
        18  9  10  1
        19  10  11  2
        20  10  17  1
        21  11  12  1
        22  11  45  1
        23  12  13  1
        24  12  16  1
        25  13  14  2
        26  13  46  1
        27  14  15  1
        28  14  47  1
        29  15  16  2
        30  17  18  2
        31  17  22  1
        32  18  19  1
        33  18  48  1
        34  19  20  2
        35  19  49  1
        36  20  21  1
        37  20  50  1
        38  21  22  2
        39  21  23  1
        40  22  51  1
        41  23  24  2
        42  23  25  1
        43  25  26  1
        44  25  52  1
        45  26  27  2
        46  26  31  1
        47  27  28  1
        48  27  53  1
        49  28  29  2
        50  28  54  1
        51  29  30  1
        52  29  32  1
        53  30  31  2
        54  30  55  1
        55  31  56  1
        56  32  33  2
        57  32  34  1
        58  34  57  1
        59  34  58  1
        60  35  36  2
        61  35  59  1
        62  36  37  1
        63  37  38  1
        64  38  60  1
        65  38  61  1
        66  38  62  1
@<TRIPOS>SUBSTRUCTURE
       1 LIG             1 RESIDUE    0 **** ROOT      0
