@<TRIPOS>MOLECULE
LIG
61 64
SMALL
USER_CHARGES
@<TRIPOS>ATOM
      1 C1           22.998     29.936     47.907 aa            1 LIG       -0.266273
      2 N1           24.328     30.678     48.161 ab            1 LIG        0.020873
      3 C2           25.266     30.551     46.939 ad            1 LIG       -0.266273
      4 C3           24.098     32.145     48.605 ae            1 LIG        0.093645
      5 C4           25.334     32.671     49.360 af            1 LIG       -0.078868
      6 C5           25.167     34.067     49.965 ah            1 LIG        0.217436
      7 O1           23.943     34.132     50.677 ai            1 LIG       -0.431737
      8 C6           23.884     33.771     52.005 aj            1 LIG        0.076402
      9 C7           24.903     33.926     52.958 ak            1 LIG        0.212810
     10 N2           24.708     33.676     54.281 an            1 LIG       -0.551466
     11 C8           23.468     33.241     54.652 ao            1 LIG        0.606335
     12 N3           22.441     33.021     53.789 ap            1 LIG       -0.551466
     13 C9           22.670     33.286     52.483 aq            1 LIG        0.212810
     14 C10          23.213     32.943     56.100 av            1 LIG       -0.027143
     15 C11          24.247     32.970     57.049 aw            1 LIG       -0.164646
     16 C12          24.021     32.608     58.375 ax            1 LIG       -0.132525
     17 C13          22.754     32.203     58.778 ay            1 LIG       -0.184949
     18 C14          21.696     32.190     57.869 az            1 LIG        0.093356
     19 C15          20.296     31.781     58.314 bb            1 LIG        0.026334
     20 N4           19.955     30.398     57.936 bc            1 LIG        0.043283
     21 N5           19.435     30.228     56.650 bd            1 LIG       -0.389010
     22 C16          19.083     29.070     56.187 bf            1 LIG        0.216510
     23 C17          19.317     27.930     57.063 bg            1 LIG       -0.096558
     24 C18          19.847     28.086     58.297 bh            1 LIG       -0.193057
     25 C19          20.199     29.387     58.837 bj            1 LIG        0.559957
     26 O2           20.647     29.526     59.976 bk            1 LIG       -0.621315
     27 C20          18.461     28.904     54.850 bl            1 LIG        0.115848
     28 C21          18.011     30.039     54.149 bm            1 LIG       -0.265838
     29 C22          17.356     29.919     52.925 bn            1 LIG        0.226781
     30 F1           16.919     31.029     52.285 bo            1 LIG       -0.156195
     31 C23          17.139     28.659     52.376 bp            1 LIG       -0.273078
     32 C24          17.584     27.522     53.046 bq            1 LIG        0.226781
     33 F2           17.356     26.298     52.519 bs            1 LIG       -0.156195
     34 C25          18.247     27.643     54.268 bt            1 LIG       -0.265838
     35 C26          21.928     32.577     56.550 bu            1 LIG       -0.225039
     36 H1           22.408     29.982     48.823 bv            1 LIG        0.149028
     37 H2           23.235     28.901     47.661 bw            1 LIG        0.149028
     38 H3           22.485     30.433     47.081 bx            1 LIG        0.149028
     39 H4           26.220     31.026     47.175 by            1 LIG        0.149028
     40 H5           24.785     31.040     46.089 bz            1 LIG        0.149028
     41 H6           25.417     29.487     46.751 cb            1 LIG        0.149028
     42 H7           23.848     32.723     47.713 ci            1 LIG        0.050486
     43 H8           23.231     32.120     49.270 cj            1 LIG        0.050486
     44 H9           25.594     31.973     50.157 ck            1 LIG        0.070308
     45 H10          26.182     32.727     48.677 cm            1 LIG        0.070308
     46 H11          26.043     34.327     50.559 cn            1 LIG        0.030590
     47 H12          25.108     34.801     49.160 ct            1 LIG        0.030590
     48 H13          25.873     34.317     52.693 cw            1 LIG        0.067273
     49 H14          21.847     33.126     51.806 da            1 LIG        0.067273
     50 H15          25.252     33.255     56.772 db            1 LIG        0.168344
     51 H16          24.840     32.630     59.081 dc            1 LIG        0.159044
     52 H17          22.593     31.893     59.800 dd            1 LIG        0.159321
     53 H18          20.184     31.949     59.389 de            1 LIG        0.086052
     54 H19          19.573     32.465     57.864 df            1 LIG        0.086052
     55 H20          19.079     26.922     56.759 dg            1 LIG        0.123624
     56 H21          20.018     27.219     58.920 dh            1 LIG        0.139772
     57 H22          18.147     31.030     54.554 di            1 LIG        0.184847
     58 H23          16.618     28.558     51.435 dj            1 LIG        0.195212
     59 H24          18.572     26.730     54.743 dk            1 LIG        0.184847
     60 H25          21.098     32.549     55.860 dl            1 LIG        0.200321
     61 H26          24.783     30.211     48.937 dm            1 LIG        0.329397
@<TRIPOS>BOND
        1  1  2  1
        2  1  36  1
        3  1  37  1
        4  1  38  1
        5  2  3  1
        6  2  4  1
        7  2  61  1
        8  3  39  1
        9  3  40  1
        10  3  41  1
        11  4  5  1
        12  4  42  1
        13  4  43  1
        14  5  6  1
        15  5  44  1
        16  5  45  1
        17  6  7  1
        18  6  46  1
        19  6  47  1
        20  7  8  1
        21  8  9  2
        22  8  13  1
        23  9  10  1
        24  9  48  1
        25  10  11  2
        26  11  12  1
        27  11  14  1
        28  12  13  2
        29  13  49  1
        30  14  15  2
        31  14  35  1
        32  15  16  1
        33  15  50  1
        34  16  17  2
        35  16  51  1
        36  17  18  1
        37  17  52  1
        38  18  19  1
        39  18  35  2
        40  19  20  1
        41  19  53  1
        42  19  54  1
        43  20  21  1
        44  20  25  1
        45  21  22  2
        46  22  23  1
        47  22  27  1
        48  23  24  2
        49  23  55  1
        50  24  25  1
        51  24  56  1
        52  25  26  2
        53  27  28  2
        54  27  34  1
        55  28  29  1
        56  28  57  1
        57  29  30  1
        58  29  31  2
        59  31  32  1
        60  31  58  1
        61  32  33  1
        62  32  34  2
        63  34  59  1
        64  35  60  1
@<TRIPOS>SUBSTRUCTURE
       1 LIG             1 RESIDUE    0 **** ROOT      0
