@<TRIPOS>MOLECULE
LIG
51 55
SMALL
USER_CHARGES
@<TRIPOS>ATOM
      1 C1           -6.408     12.330    -11.989 aa            1 LIG        0.262477
      2 C2           -6.516     11.754    -10.731 ab            1 LIG       -0.266323
      3 C3           -7.742     10.552    -13.021 ad            1 LIG       -0.206542
      4 C4           -7.024     11.746    -13.109 ae            1 LIG       -0.202396
      5 C5           -7.827      9.986    -11.743 af            1 LIG        0.060911
      6 C6           -7.240     10.580    -10.604 ah            1 LIG        0.053924
      7 C7           -7.609      9.715     -9.509 ai            1 LIG        0.095403
      8 N1           -8.285      8.701     -9.977 aj            1 LIG       -0.425834
      9 N2           -8.437      8.840    -11.292 ak            1 LIG       -0.028963
     10 C8           -7.331      9.873     -8.023 an            1 LIG        0.037297
     11 N3           -5.673     13.495    -12.118 ao            1 LIG       -0.395738
     12 C9           -5.962     10.482     -7.736 ap            1 LIG        0.094676
     13 C10          -4.803      9.768     -8.046 aq            1 LIG       -0.194207
     14 C11          -3.562     10.325     -7.793 av            1 LIG       -0.195110
     15 C12          -3.453     11.601     -7.231 aw            1 LIG        0.105265
     16 C13          -4.616     12.314     -6.915 ax            1 LIG       -0.195110
     17 C14          -5.866     11.757     -7.162 ay            1 LIG       -0.194207
     18 C15          -2.108     12.189     -6.963 az            1 LIG        0.035500
     19 C16          -1.783     13.436     -6.447 bb            1 LIG       -0.192771
     20 N4           -0.444     13.491     -6.396 bc            1 LIG        0.225181
     21 N5            0.164     12.417     -6.807 bd            1 LIG       -0.440110
     22 C17          -0.811     11.602     -7.180 bf            1 LIG       -0.016293
     23 C18           0.373     14.611     -5.930 bg            1 LIG       -0.203320
     24 C19          -5.886     14.507    -13.162 bh            1 LIG        0.049547
     25 C20          -4.604     14.831    -13.909 bj            1 LIG        0.217353
     26 O1           -3.637     15.208    -12.934 bk            1 LIG       -0.471993
     27 C21          -3.285     14.122    -12.120 bl            1 LIG        0.217353
     28 C22          -4.511     13.822    -11.257 bm            1 LIG        0.049547
     29 H1           -6.068     12.216     -9.871 bn            1 LIG        0.134786
     30 H2           -8.201     10.110    -13.887 bo            1 LIG        0.134392
     31 H3           -6.927     12.217    -14.077 bp            1 LIG        0.146757
     32 H4           -8.960      8.158    -11.823 bq            1 LIG        0.278286
     33 H5           -8.092     10.525     -7.586 bs            1 LIG        0.029211
     34 H6           -7.421      8.919     -7.508 bt            1 LIG        0.029211
     35 H7           -4.880      8.785     -8.484 bu            1 LIG        0.136513
     36 H8           -2.667      9.763     -8.039 bv            1 LIG        0.135110
     37 H9           -4.542     13.299     -6.478 bw            1 LIG        0.135110
     38 H10          -6.757     12.312     -6.920 bx            1 LIG        0.136513
     39 H11          -2.389     14.269     -6.127 by            1 LIG        0.150294
     40 H12          -0.615     10.624     -7.585 bz            1 LIG        0.141729
     41 H13           1.020     14.938     -6.745 cb            1 LIG        0.104327
     42 H14           0.985     14.283     -5.089 ci            1 LIG        0.104327
     43 H15          -0.264     15.438     -5.620 cj            1 LIG        0.104327
     44 H16          -6.229     15.425    -12.677 ck            1 LIG        0.043232
     45 H17          -6.679     14.219    -13.864 cm            1 LIG        0.043232
     46 H18          -4.686     15.580    -14.661 cn            1 LIG        0.012665
     47 H19          -4.301     13.938    -14.474 ct            1 LIG        0.012665
     48 H20          -2.363     14.319    -11.570 cw            1 LIG        0.012665
     49 H21          -3.079     13.229    -12.733 da            1 LIG        0.012665
     50 H22          -4.691     14.654    -10.588 db            1 LIG        0.043232
     51 H23          -4.218     12.948    -10.660 dc            1 LIG        0.043232
@<TRIPOS>BOND
        1  1  2  2
        2  1  4  1
        3  1  11  1
        4  2  6  1
        5  2  29  1
        6  3  4  2
        7  3  5  1
        8  3  30  1
        9  4  31  1
        10  5  6  2
        11  5  9  1
        12  6  7  1
        13  7  8  2
        14  7  10  1
        15  8  9  1
        16  9  32  1
        17  10  12  1
        18  10  33  1
        19  10  34  1
        20  11  24  1
        21  11  28  1
        22  12  13  2
        23  12  17  1
        24  13  14  1
        25  13  35  1
        26  14  15  2
        27  14  36  1
        28  15  16  1
        29  15  18  1
        30  16  17  2
        31  16  37  1
        32  17  38  1
        33  18  19  2
        34  18  22  1
        35  19  20  1
        36  19  39  1
        37  20  21  1
        38  20  23  1
        39  21  22  2
        40  22  40  1
        41  23  41  1
        42  23  42  1
        43  23  43  1
        44  24  25  1
        45  24  44  1
        46  24  45  1
        47  25  26  1
        48  25  46  1
        49  25  47  1
        50  26  27  1
        51  27  28  1
        52  27  48  1
        53  27  49  1
        54  28  50  1
        55  28  51  1
@<TRIPOS>SUBSTRUCTURE
       1 LIG             1 RESIDUE    0 **** ROOT      0
