@<TRIPOS>MOLECULE
LIG
39 41
SMALL
USER_CHARGES
@<TRIPOS>ATOM
      1 N1           27.613     -0.722    -11.857 aa            1 LIG       -0.842126
      2 C1           26.863      0.483    -11.649 ab            1 LIG        0.222494
      3 C2           26.105      0.954    -12.904 ad            1 LIG        0.286644
      4 C3           24.740      0.304    -12.889 ae            1 LIG       -0.010726
      5 C4           24.552      0.015    -11.423 af            1 LIG       -0.044452
      6 C5           25.758      0.091    -10.706 ah            1 LIG       -0.028996
      7 C6           25.816     -0.319     -9.372 ai            1 LIG       -0.007035
      8 C7           24.667     -0.840     -8.777 aj            1 LIG       -0.187553
      9 C8           23.473     -0.898     -9.500 ak            1 LIG       -0.200618
     10 C9           23.413     -0.435    -10.807 an            1 LIG        0.213928
     11 O1           22.320     -0.447    -11.636 ao            1 LIG       -0.316203
     12 C10          21.093     -0.665    -11.119 ap            1 LIG        0.276781
     13 C11          20.523     -1.921    -11.270 aq            1 LIG       -0.270206
     14 C12          19.298     -2.186    -10.682 av            1 LIG        0.228517
     15 F1           18.717     -3.395    -10.810 aw            1 LIG       -0.154848
     16 C13          18.647     -1.192     -9.959 ax            1 LIG       -0.256310
     17 C14          19.173      0.095     -9.880 ay            1 LIG        0.189337
     18 C15          18.451      1.175     -9.231 az            1 LIG        0.220010
     19 C16          20.415      0.355    -10.443 bb            1 LIG       -0.264154
     20 S1           27.383     -0.436     -8.493 bc            1 LIG        0.915936
     21 O2           27.165     -1.252     -7.317 bd            1 LIG       -0.533368
     22 O3           28.406     -0.781     -9.482 bf            1 LIG       -0.533368
     23 C17          27.756      1.268     -7.842 bg            1 LIG       -0.369770
     24 F2           25.920      2.250    -12.697 bh            1 LIG       -0.208802
     25 F3           26.739      0.743    -14.069 bj            1 LIG       -0.208802
     26 N2           17.885      2.040     -8.717 bk            1 LIG       -0.367045
     27 H1           28.425     -0.525    -12.436 bl            1 LIG        0.338378
     28 H2           27.960     -1.102    -10.974 bm            1 LIG        0.338378
     29 H3           27.486      1.291    -11.338 bn            1 LIG        0.099091
     30 H4           24.768     -0.626    -13.463 bo            1 LIG        0.059802
     31 H5           23.967      0.944    -13.323 bp            1 LIG        0.059802
     32 H6           24.706     -1.242     -7.769 bq            1 LIG        0.181857
     33 H7           22.607     -1.362     -9.064 bs            1 LIG        0.186690
     34 H8           21.044     -2.687    -11.827 bt            1 LIG        0.192695
     35 H9           17.723     -1.464     -9.487 bu            1 LIG        0.182611
     36 H10          20.857      1.334    -10.327 bv            1 LIG        0.161359
     37 H11          28.736      1.186     -7.380 bw            1 LIG        0.150025
     38 H12          27.041      1.491     -7.064 bx            1 LIG        0.150025
     39 H13          27.790      1.967     -8.638 by            1 LIG        0.150025
@<TRIPOS>BOND
        1  1  2  1
        2  1  27  1
        3  1  28  1
        4  2  3  1
        5  2  6  1
        6  2  29  1
        7  3  4  1
        8  3  24  1
        9  3  25  1
        10  4  5  1
        11  4  30  1
        12  4  31  1
        13  5  6  2
        14  5  10  1
        15  6  7  1
        16  7  8  2
        17  7  20  1
        18  8  9  1
        19  8  32  1
        20  9  10  2
        21  9  33  1
        22  10  11  1
        23  11  12  1
        24  12  13  2
        25  12  19  1
        26  13  14  1
        27  13  34  1
        28  14  15  1
        29  14  16  2
        30  16  17  1
        31  16  35  1
        32  17  18  1
        33  17  19  2
        34  18  26  3
        35  19  36  1
        36  20  21  2
        37  20  22  2
        38  20  23  1
        39  23  37  1
        40  23  38  1
        41  23  39  1
@<TRIPOS>SUBSTRUCTURE
       1 LIG             1 RESIDUE    0 **** ROOT      0
