@<TRIPOS>MOLECULE
LIG
65 70
SMALL
USER_CHARGES
@<TRIPOS>ATOM
      1 C1           -4.255     -3.103     13.571 aa            1 LIG        0.065202
      2 O1           -3.874     -2.353     14.717 ab            1 LIG       -0.352960
      3 C2           -2.526     -2.106     14.805 ad            1 LIG        0.191840
      4 C3           -1.750     -2.867     15.680 ae            1 LIG       -0.221499
      5 C4           -0.386     -2.611     15.815 af            1 LIG       -0.223154
      6 C5            0.222     -1.583     15.089 ah            1 LIG        0.272215
      7 N1            1.593     -1.349     15.306 ai            1 LIG       -0.565798
      8 C6            2.545     -0.469     14.754 aj            1 LIG        0.446728
      9 N2            2.218      0.355     13.719 ak            1 LIG       -0.556233
     10 C7            3.123      1.241     13.218 an            1 LIG        0.209264
     11 C8            4.421      1.304     13.717 ao            1 LIG       -0.118391
     12 N3            4.748      0.492     14.765 ap            1 LIG        0.063358
     13 C9            5.890      0.384     15.504 aq            1 LIG       -0.163470
     14 C10           5.572     -0.509     16.518 av            1 LIG        0.031553
     15 N4            4.382     -1.054     16.392 aw            1 LIG       -0.513940
     16 C11           3.833     -0.417     15.325 ax            1 LIG        0.172860
     17 C12           2.656      2.156     12.134 ay            1 LIG        0.113459
     18 C13           3.557      2.628     11.167 az            1 LIG       -0.181666
     19 C14           3.129      3.450     10.128 bb            1 LIG       -0.133724
     20 C15           1.788      3.808     10.032 bc            1 LIG       -0.174836
     21 C16           0.866      3.371     10.989 bd            1 LIG        0.013355
     22 C17           1.314      2.558     12.042 bf            1 LIG       -0.249042
     23 C18          -0.578      3.765     10.896 bg            1 LIG        0.700747
     24 O2           -1.303      3.574      9.924 bh            1 LIG       -0.604542
     25 N5           -1.003      4.361     12.010 bj            1 LIG       -0.496427
     26 C19          -2.354      4.864     12.241 bk            1 LIG        0.209841
     27 C20          -2.584      5.812     13.230 bl            1 LIG       -0.208965
     28 C21          -3.870      6.290     13.450 bm            1 LIG       -0.190269
     29 C22          -4.927      5.820     12.679 bn            1 LIG        0.096301
     30 C23          -4.698      4.872     11.690 bo            1 LIG       -0.190269
     31 C24          -3.411      4.394     11.470 bp            1 LIG       -0.208965
     32 C25          -6.315      6.337     12.916 bq            1 LIG        0.236897
     33 N6           -6.695      7.226     13.805 bs            1 LIG       -0.498287
     34 C26          -8.003      7.357     13.637 bt            1 LIG        0.017161
     35 C27          -8.473      6.538     12.622 bu            1 LIG       -0.146980
     36 N7           -7.363      5.880     12.163 bv            1 LIG       -0.205287
     37 C28          -0.566     -0.826     14.211 bw            1 LIG       -0.298261
     38 C29          -1.939     -1.076     14.058 bx            1 LIG        0.202158
     39 O3           -2.699     -0.305     13.202 by            1 LIG       -0.348018
     40 C30          -2.002      0.675     12.525 bz            1 LIG        0.061270
     41 H1           -3.753     -4.071     13.551 cb            1 LIG        0.055375
     42 H2           -4.018     -2.567     12.650 ci            1 LIG        0.055375
     43 H3           -5.331     -3.281     13.589 cj            1 LIG        0.055375
     44 H4           -2.210     -3.653     16.261 ck            1 LIG        0.156069
     45 H5            0.191     -3.210     16.503 cm            1 LIG        0.145257
     46 H6            2.025     -1.886     16.047 cn            1 LIG        0.365234
     47 H7            5.170      2.003     13.372 ct            1 LIG        0.119904
     48 H8            6.766      0.974     15.290 cw            1 LIG        0.149835
     49 H9            6.209     -0.833     17.330 da            1 LIG        0.150423
     50 H10           4.593      2.331     11.200 db            1 LIG        0.164838
     51 H11           3.834      3.794      9.384 dc            1 LIG        0.154283
     52 H12           1.456      4.435      9.217 dd            1 LIG        0.171389
     53 H13           0.605      2.213     12.781 de            1 LIG        0.136186
     54 H14          -0.442      4.538     12.831 df            1 LIG        0.299039
     55 H15          -1.761      6.178     13.830 dg            1 LIG        0.163711
     56 H16          -4.048      7.029     14.220 dh            1 LIG        0.152020
     57 H17          -5.521      4.506     11.090 di            1 LIG        0.152020
     58 H18          -3.233      3.655     10.700 dj            1 LIG        0.163711
     59 H19          -8.600      8.033     14.238 dk            1 LIG        0.143913
     60 H20          -9.459      6.371     12.203 dl            1 LIG        0.142297
     61 H21          -7.315      5.191     11.415 dm            1 LIG        0.283848
     62 H22          -0.155     -0.017     13.634 dn            1 LIG        0.193707
     63 H23          -2.685      1.226     11.879 do            1 LIG        0.057656
     64 H24          -1.222      0.213     11.920 dp            1 LIG        0.057656
     65 H25          -1.548      1.359     13.242 dq            1 LIG        0.057656
@<TRIPOS>BOND
        1  1  2  1
        2  1  41  1
        3  1  42  1
        4  1  43  1
        5  2  3  1
        6  3  4  2
        7  3  38  1
        8  4  5  1
        9  4  44  1
        10  5  6  2
        11  5  45  1
        12  6  7  1
        13  6  37  1
        14  7  8  1
        15  7  46  1
        16  8  9  2
        17  8  16  1
        18  9  10  1
        19  10  11  2
        20  10  17  1
        21  11  12  1
        22  11  47  1
        23  12  13  1
        24  12  16  1
        25  13  14  2
        26  13  48  1
        27  14  15  1
        28  14  49  1
        29  15  16  2
        30  17  18  2
        31  17  22  1
        32  18  19  1
        33  18  50  1
        34  19  20  2
        35  19  51  1
        36  20  21  1
        37  20  52  1
        38  21  22  2
        39  21  23  1
        40  22  53  1
        41  23  24  2
        42  23  25  1
        43  25  26  1
        44  25  54  1
        45  26  27  2
        46  26  31  1
        47  27  28  1
        48  27  55  1
        49  28  29  2
        50  28  56  1
        51  29  30  1
        52  29  32  1
        53  30  31  2
        54  30  57  1
        55  31  58  1
        56  32  33  2
        57  32  36  1
        58  33  34  1
        59  34  35  2
        60  34  59  1
        61  35  36  1
        62  35  60  1
        63  36  61  1
        64  37  38  2
        65  37  62  1
        66  38  39  1
        67  39  40  1
        68  40  63  1
        69  40  64  1
        70  40  65  1
@<TRIPOS>SUBSTRUCTURE
       1 LIG             1 RESIDUE    0 **** ROOT      0
