@<TRIPOS>MOLECULE
LIG
43 45
SMALL
USER_CHARGES
@<TRIPOS>ATOM
      1 N1           24.699     41.288      3.108 aa            1 LIG       -0.488842
      2 C1           24.754     42.366      2.083 ab            1 LIG        0.020859
      3 C2           26.082     43.185      2.078 ad            1 LIG        0.290513
      4 N2           27.254     42.333      2.413 ae            1 LIG       -0.752264
      5 C3           27.122     41.495      3.636 af            1 LIG        0.290513
      6 C4           25.927     40.526      3.444 ah            1 LIG        0.020859
      7 C5           19.706     40.207      5.492 ai            1 LIG        0.062603
      8 C6           19.476     40.522      6.829 aj            1 LIG       -0.235628
      9 C7           18.197     40.380      7.380 ak            1 LIG        0.106810
     10 C8           17.116     39.987      6.582 an            1 LIG        0.104060
     11 C9           17.336     39.694      5.221 ao            1 LIG       -0.197273
     12 C10          18.621     39.838      4.672 ap            1 LIG       -0.183027
     13 C11          21.064     40.437      4.925 aq            1 LIG       -0.123485
     14 C12          21.183     41.438      3.956 av            1 LIG        0.248094
     15 N3           22.371     41.661      3.375 aw            1 LIG       -0.627195
     16 C13          23.501     40.978      3.701 ax            1 LIG        0.777525
     17 N4           23.399     40.001      4.638 ay            1 LIG       -0.652149
     18 C14          22.231     39.697      5.247 az            1 LIG        0.613179
     19 Cl1          17.974     40.739      9.055 bb            1 LIG       -0.098654
     20 N5           22.224     38.616      6.229 bc            1 LIG       -0.948941
     21 C15          26.281     43.871      0.759 bd            1 LIG       -0.324476
     22 C16          28.386     40.722      3.869 bf            1 LIG       -0.324476
     23 Cl2          15.524     39.831      7.234 bg            1 LIG       -0.093503
     24 H1           23.926     43.069      2.182 bh            1 LIG        0.096100
     25 H2           24.613     41.887      1.113 bj            1 LIG        0.096100
     26 H3           26.013     43.972      2.831 bk            1 LIG        0.099981
     27 H4           28.068     42.923      2.507 bl            1 LIG        0.414159
     28 H5           26.965     42.129      4.510 bm            1 LIG        0.099981
     29 H6           25.806     39.938      4.356 bn            1 LIG        0.096100
     30 H7           26.123     39.807      2.647 bo            1 LIG        0.096100
     31 H8           20.282     40.857      7.465 bp            1 LIG        0.175986
     32 H9           16.508     39.386      4.598 bq            1 LIG        0.181149
     33 H10          18.770     39.632      3.621 bs            1 LIG        0.162414
     34 H11          20.345     42.039      3.635 bt            1 LIG        0.070800
     35 H12          21.366     38.367      6.700 bu            1 LIG        0.418659
     36 H13          23.077     38.117      6.436 bv            1 LIG        0.418659
     37 H14          25.411     44.488      0.535 bw            1 LIG        0.112425
     38 H15          26.407     43.123     -0.024 bx            1 LIG        0.112425
     39 H16          27.170     44.499      0.806 by            1 LIG        0.112425
     40 H17          28.279     40.112      4.766 bz            1 LIG        0.112425
     41 H18          29.217     41.416      3.999 cb            1 LIG        0.112425
     42 H19          28.581     40.077      3.013 ci            1 LIG        0.112425
     43 H20          27.399     41.704      1.636 cj            1 LIG        0.414159
@<TRIPOS>BOND
        1  1  2  1
        2  1  6  1
        3  1  16  1
        4  2  3  1
        5  2  24  1
        6  2  25  1
        7  3  4  1
        8  3  21  1
        9  3  26  1
        10  4  5  1
        11  4  27  1
        12  4  43  1
        13  5  6  1
        14  5  22  1
        15  5  28  1
        16  6  29  1
        17  6  30  1
        18  7  8  2
        19  7  12  1
        20  7  13  1
        21  8  9  1
        22  8  31  1
        23  9  10  2
        24  9  19  1
        25  10  11  1
        26  10  23  1
        27  11  12  2
        28  11  32  1
        29  12  33  1
        30  13  14  2
        31  13  18  1
        32  14  15  1
        33  14  34  1
        34  15  16  2
        35  16  17  1
        36  17  18  2
        37  18  20  1
        38  20  35  1
        39  20  36  1
        40  21  37  1
        41  21  38  1
        42  21  39  1
        43  22  40  1
        44  22  41  1
        45  22  42  1
@<TRIPOS>SUBSTRUCTURE
       1 LIG             1 RESIDUE    0 **** ROOT      0
