@<TRIPOS>MOLECULE
LIG
63 67
SMALL
USER_CHARGES
@<TRIPOS>ATOM
      1 O1           20.627     29.526     59.940 aa            1 LIG       -0.642917
      2 C1           20.183     29.365     58.800 ab            1 LIG        0.587834
      3 C2           19.851     28.046     58.290 ad            1 LIG       -0.192577
      4 C3           19.375     27.849     57.040 ae            1 LIG       -0.098319
      5 C4           19.177     28.953     56.118 af            1 LIG        0.208874
      6 N1           19.450     30.137     56.571 ah            1 LIG       -0.394752
      7 N2           19.929     30.353     57.869 ai            1 LIG        0.043546
      8 C5           20.227     31.754     58.220 aj            1 LIG        0.030244
      9 C6           21.634     32.220     57.830 ak            1 LIG        0.087846
     10 C7           22.656     32.234     58.776 an            1 LIG       -0.191530
     11 C8           23.925     32.695     58.430 ao            1 LIG       -0.135905
     12 C9           24.181     33.126     57.129 ap            1 LIG       -0.166613
     13 C10          23.180     33.119     56.146 aq            1 LIG       -0.021092
     14 C11          21.898     32.676     56.534 av            1 LIG       -0.225905
     15 C12          23.487     33.489     54.719 aw            1 LIG        0.589746
     16 N3           24.773     33.794     54.376 ax            1 LIG       -0.539934
     17 C13          25.046     33.926     53.047 ay            1 LIG        0.193586
     18 C14          24.079     33.751     52.053 az            1 LIG        0.094531
     19 O2           24.462     33.804     50.721 bb            1 LIG       -0.394709
     20 C15          23.517     33.565     49.667 bc            1 LIG        0.215283
     21 C16          22.820     32.176     49.707 bd            1 LIG        0.191152
     22 N4           23.141     31.320     48.562 bf            1 LIG       -0.857430
     23 C17          22.218     30.178     48.505 bg            1 LIG        0.203161
     24 C18          22.569     29.246     47.324 bh            1 LIG        0.216211
     25 O3           23.928     28.825     47.394 bj            1 LIG       -0.463202
     26 C19          24.850     29.910     47.454 bk            1 LIG        0.216211
     27 C20          24.532     30.852     48.632 bl            1 LIG        0.203161
     28 C21          22.776     33.518     52.515 bm            1 LIG        0.193586
     29 N5           22.465     33.379     53.827 bn            1 LIG       -0.539934
     30 C22          18.703     28.710     54.736 bo            1 LIG        0.114160
     31 C23          18.990     29.655     53.735 bp            1 LIG       -0.184517
     32 C24          18.580     29.453     52.420 bq            1 LIG       -0.132110
     33 C25          17.871     28.303     52.079 bs            1 LIG       -0.176961
     34 C26          17.575     27.349     53.053 bt            1 LIG        0.184669
     35 C27          17.998     27.547     54.373 bu            1 LIG       -0.230384
     36 C28          16.835     26.153     52.679 bv            1 LIG        0.216403
     37 N6           16.247     25.203     52.374 bw            1 LIG       -0.391527
     38 H1           20.005     27.198     58.941 bx            1 LIG        0.137671
     39 H2           19.175     26.827     56.747 by            1 LIG        0.115248
     40 H3           20.062     31.942     59.283 bz            1 LIG        0.080606
     41 H4           19.500     32.401     57.726 cb            1 LIG        0.080606
     42 H5           22.470     31.895     59.784 ci            1 LIG        0.146688
     43 H6           24.716     32.708     59.165 cj            1 LIG        0.148669
     44 H7           25.181     33.458     56.889 ck            1 LIG        0.165257
     45 H8           21.094     32.645     55.812 cm            1 LIG        0.195224
     46 H9           26.073     34.125     52.775 cn            1 LIG        0.071309
     47 H10          24.062     33.689     48.729 ct            1 LIG        0.019359
     48 H11          22.768     34.354     49.629 cw            1 LIG        0.019359
     49 H12          21.745     32.345     49.737 da            1 LIG        0.053530
     50 H13          23.071     31.643     50.626 db            1 LIG        0.053530
     51 H14          22.239     29.609     49.436 dc            1 LIG        0.030560
     52 H15          21.194     30.535     48.386 dd            1 LIG        0.030560
     53 H16          21.928     28.364     47.341 de            1 LIG        0.020980
     54 H17          22.376     29.743     46.370 df            1 LIG        0.020980
     55 H18          25.851     29.505     47.570 dg            1 LIG        0.020980
     56 H19          24.853     30.460     46.511 dh            1 LIG        0.020980
     57 H20          24.714     30.337     49.575 di            1 LIG        0.030560
     58 H21          25.220     31.699     48.608 dj            1 LIG        0.030560
     59 H22          21.944     33.388     51.847 dk            1 LIG        0.071309
     60 H23          19.545     30.554     53.966 dl            1 LIG        0.149308
     61 H24          18.817     30.184     51.660 dm            1 LIG        0.152159
     62 H25          17.565     28.159     51.052 dn            1 LIG        0.152919
     63 H26          17.761     26.795     55.113 do            1 LIG        0.171198
@<TRIPOS>BOND
        1  1  2  2
        2  2  3  1
        3  2  7  1
        4  3  4  2
        5  3  38  1
        6  4  5  1
        7  4  39  1
        8  5  6  2
        9  5  30  1
        10  6  7  1
        11  7  8  1
        12  8  9  1
        13  8  40  1
        14  8  41  1
        15  9  10  2
        16  9  14  1
        17  10  11  1
        18  10  42  1
        19  11  12  2
        20  11  43  1
        21  12  13  1
        22  12  44  1
        23  13  14  2
        24  13  15  1
        25  14  45  1
        26  15  16  2
        27  15  29  1
        28  16  17  1
        29  17  18  2
        30  17  46  1
        31  18  19  1
        32  18  28  1
        33  19  20  1
        34  20  21  1
        35  20  47  1
        36  20  48  1
        37  21  22  1
        38  21  49  1
        39  21  50  1
        40  22  23  1
        41  22  27  1
        42  23  24  1
        43  23  51  1
        44  23  52  1
        45  24  25  1
        46  24  53  1
        47  24  54  1
        48  25  26  1
        49  26  27  1
        50  26  55  1
        51  26  56  1
        52  27  57  1
        53  27  58  1
        54  28  29  2
        55  28  59  1
        56  30  31  2
        57  30  35  1
        58  31  32  1
        59  31  60  1
        60  32  33  2
        61  32  61  1
        62  33  34  1
        63  33  62  1
        64  34  35  2
        65  34  36  1
        66  35  63  1
        67  36  37  3
@<TRIPOS>SUBSTRUCTURE
       1 LIG             1 RESIDUE    0 **** ROOT      0
