@<TRIPOS>MOLECULE
LIG
66 70
SMALL
USER_CHARGES
@<TRIPOS>ATOM
      1 C1           25.297     29.365     46.702 aa            1 LIG       -0.228639
      2 N1           25.047     30.546     47.665 ab            1 LIG        0.040225
      3 C2           23.634     30.443     48.282 ad            1 LIG        0.014886
      4 C3           23.440     31.592     49.283 ae            1 LIG       -0.079049
      5 C4           23.681     32.977     48.643 af            1 LIG        0.062243
      6 C5           23.502     34.124     49.660 ah            1 LIG        0.199044
      7 O1           24.471     34.034     50.709 ai            1 LIG       -0.405395
      8 C6           24.094     33.759     52.011 aj            1 LIG        0.084805
      9 C7           25.046     33.933     53.016 ak            1 LIG        0.215026
     10 N2           24.779     33.742     54.334 an            1 LIG       -0.556715
     11 C8           23.518     33.336     54.658 ao            1 LIG        0.603112
     12 N3           22.528     33.116     53.749 ap            1 LIG       -0.556715
     13 C9           22.830     33.325     52.440 aq            1 LIG        0.215026
     14 C10          23.224     33.031     56.103 av            1 LIG       -0.024036
     15 C11          24.241     33.044     57.071 aw            1 LIG       -0.165958
     16 C12          23.995     32.664     58.390 ax            1 LIG       -0.132509
     17 C13          22.723     32.255     58.774 ay            1 LIG       -0.185789
     18 C14          21.681     32.251     57.843 az            1 LIG        0.097480
     19 C15          20.278     31.822     58.263 bb            1 LIG        0.027044
     20 N4           19.960     30.428     57.906 bc            1 LIG        0.041936
     21 N5           19.506     30.220     56.599 bd            1 LIG       -0.401490
     22 C16          19.247     29.039     56.135 bf            1 LIG        0.213823
     23 C17          19.436     27.926     57.049 bg            1 LIG       -0.097662
     24 C18          19.887     28.118     58.310 bh            1 LIG       -0.191372
     25 C19          20.207     29.435     58.832 bj            1 LIG        0.560133
     26 O2           20.645     29.597     59.973 bk            1 LIG       -0.618700
     27 C20          18.791     28.811     54.746 bl            1 LIG        0.109771
     28 C21          19.108     29.754     53.752 bm            1 LIG       -0.182337
     29 C22          18.704     29.565     52.433 bn            1 LIG       -0.130691
     30 C23          17.973     28.435     52.081 bo            1 LIG       -0.174995
     31 C24          17.645     27.486     53.054 bp            1 LIG        0.194504
     32 C25          18.063     27.667     54.375 bq            1 LIG       -0.232451
     33 C26          16.866     26.314     52.678 bs            1 LIG        0.206892
     34 N6           16.247     25.383     52.377 bt            1 LIG       -0.385984
     35 C27          21.932     32.661     56.528 bu            1 LIG       -0.222948
     36 C28          25.062     33.030     47.954 bv            1 LIG       -0.079049
     37 C29          25.264     31.892     46.939 bw            1 LIG        0.014886
     38 H1           25.179     28.442     47.275 bx            1 LIG        0.136550
     39 H2           26.319     29.453     46.328 by            1 LIG        0.136550
     40 H3           24.569     29.422     45.888 bz            1 LIG        0.136550
     41 H4           22.912     30.481     47.461 cb            1 LIG        0.081988
     42 H5           23.564     29.478     48.776 ci            1 LIG        0.081988
     43 H6           24.118     31.444     50.126 cj            1 LIG        0.069004
     44 H7           22.431     31.542     49.692 ck            1 LIG        0.069004
     45 H8           22.923     33.122     47.869 cm            1 LIG        0.004716
     46 H9           23.673     35.075     49.155 cn            1 LIG        0.027205
     47 H10          22.465     34.181     49.984 ct            1 LIG        0.027205
     48 H11          26.045     34.263     52.764 cw            1 LIG        0.067945
     49 H12          22.020     33.130     51.754 da            1 LIG        0.067945
     50 H13          25.250     33.325     56.803 db            1 LIG        0.167622
     51 H14          24.805     32.672     59.108 dc            1 LIG        0.154348
     52 H15          22.547     31.926     59.788 dd            1 LIG        0.155205
     53 H16          20.142     32.007     59.331 de            1 LIG        0.091058
     54 H17          19.551     32.482     57.786 df            1 LIG        0.091058
     55 H18          19.248     26.908     56.741 dg            1 LIG        0.119920
     56 H19          20.032     27.266     58.959 dh            1 LIG        0.141322
     57 H20          19.676     30.640     53.993 di            1 LIG        0.167128
     58 H21          18.959     30.300     51.679 dj            1 LIG        0.154532
     59 H22          17.667     28.304     51.052 dk            1 LIG        0.156287
     60 H23          17.799     26.921     55.113 dl            1 LIG        0.152830
     61 H24          21.116     32.644     55.821 dm            1 LIG        0.169328
     62 H25          25.851     32.982     48.706 dn            1 LIG        0.069004
     63 H26          25.191     33.989     47.449 do            1 LIG        0.069004
     64 H27          24.553     31.941     46.111 dp            1 LIG        0.081988
     65 H28          26.281     31.890     46.544 dq            1 LIG        0.081988
     66 H29          25.736     30.509     48.410 dr            1 LIG        0.222375
@<TRIPOS>BOND
        1  1  2  1
        2  1  38  1
        3  1  39  1
        4  1  40  1
        5  2  3  1
        6  2  37  1
        7  2  66  1
        8  3  4  1
        9  3  41  1
        10  3  42  1
        11  4  5  1
        12  4  43  1
        13  4  44  1
        14  5  6  1
        15  5  36  1
        16  5  45  1
        17  6  7  1
        18  6  46  1
        19  6  47  1
        20  7  8  1
        21  8  9  2
        22  8  13  1
        23  9  10  1
        24  9  48  1
        25  10  11  2
        26  11  12  1
        27  11  14  1
        28  12  13  2
        29  13  49  1
        30  14  15  2
        31  14  35  1
        32  15  16  1
        33  15  50  1
        34  16  17  2
        35  16  51  1
        36  17  18  1
        37  17  52  1
        38  18  19  1
        39  18  35  2
        40  19  20  1
        41  19  53  1
        42  19  54  1
        43  20  21  1
        44  20  25  1
        45  21  22  2
        46  22  23  1
        47  22  27  1
        48  23  24  2
        49  23  55  1
        50  24  25  1
        51  24  56  1
        52  25  26  2
        53  27  28  2
        54  27  32  1
        55  28  29  1
        56  28  57  1
        57  29  30  2
        58  29  58  1
        59  30  31  1
        60  30  59  1
        61  31  32  2
        62  31  33  1
        63  32  60  1
        64  33  34  3
        65  35  61  1
        66  36  37  1
        67  36  62  1
        68  36  63  1
        69  37  64  1
        70  37  65  1
@<TRIPOS>SUBSTRUCTURE
       1 LIG             1 RESIDUE    0 **** ROOT      0
