@<TRIPOS>MOLECULE
LIG
43 45
SMALL
USER_CHARGES
@<TRIPOS>ATOM
      1 N1           24.540     41.605      3.158 aa            1 LIG       -0.493630
      2 C1           24.900     42.866      2.507 ab            1 LIG        0.059796
      3 C2           26.280     43.366      2.952 ad            1 LIG       -0.140163
      4 C3           27.381     42.328      2.687 ae            1 LIG        0.722713
      5 C4           26.946     40.999      3.344 af            1 LIG       -0.140163
      6 C5           25.539     40.557      2.867 ah            1 LIG        0.059796
      7 C6           19.666     40.588      5.749 ai            1 LIG       -0.069437
      8 C7           19.510     40.864      7.123 aj            1 LIG        0.068492
      9 C8           18.302     40.566      7.766 ak            1 LIG        0.106496
     10 C9           17.245     40.020      7.043 an            1 LIG       -0.194908
     11 C10          17.391     39.743      5.686 ao            1 LIG       -0.138651
     12 C11          18.595     40.021      5.046 ap            1 LIG       -0.184579
     13 C12          20.951     40.831      5.039 aq            1 LIG        0.326422
     14 N2           20.922     41.741      4.032 av            1 LIG       -0.529948
     15 C13          22.072     42.002      3.357 aw            1 LIG        0.228163
     16 C14          23.282     41.352      3.698 ax            1 LIG        0.540103
     17 N3           23.282     40.412      4.680 ay            1 LIG       -0.624045
     18 C15          22.137     40.160      5.346 az            1 LIG        0.527124
     19 Cl1          18.081     40.851      9.459 bb            1 LIG       -0.092116
     20 Cl2          20.788     41.620      8.022 bc            1 LIG       -0.076053
     21 N4           22.206     39.213      6.353 bd            1 LIG       -0.955264
     22 N5           28.652     42.821      3.393 bf            1 LIG       -1.176539
     23 C16          27.719     42.183      1.187 bg            1 LIG       -0.391278
     24 H1           24.806     42.785      1.422 bh            1 LIG        0.077307
     25 H2           24.207     43.620      2.851 bj            1 LIG        0.077307
     26 H3           26.219     43.620      4.012 bk            1 LIG        0.057753
     27 H4           26.481     44.310      2.446 bl            1 LIG        0.057753
     28 H5           26.908     41.089      4.432 bm            1 LIG        0.057753
     29 H6           27.679     40.218      3.155 bn            1 LIG        0.057753
     30 H7           25.529     40.351      1.795 bo            1 LIG        0.077307
     31 H8           25.285     39.620      3.361 bp            1 LIG        0.077307
     32 H9           16.310     39.796      7.538 bq            1 LIG        0.184904
     33 H10          18.698     39.780      3.995 bs            1 LIG        0.162396
     34 Br1          21.840     43.221      1.900 bt            1 LIG       -0.144220
     35 H11          23.075     38.710      6.511 bu            1 LIG        0.417609
     36 H12          21.365     38.955      6.842 bv            1 LIG        0.417609
     37 H13          29.427     42.202      3.188 bw            1 LIG        0.492514
     38 H14          26.861     41.850      0.605 bx            1 LIG        0.113807
     39 H15          28.519     41.457      1.026 by            1 LIG        0.113807
     40 H16          28.040     43.132      0.752 bz            1 LIG        0.113807
     41 H17          28.875     43.754      3.074 cb            1 LIG        0.492514
     42 H18          16.576     39.298      5.132 ci            1 LIG        0.170169
     43 H19          28.517     42.852      4.394 cj            1 LIG        0.492514
@<TRIPOS>BOND
        1  1  2  1
        2  1  6  1
        3  1  16  1
        4  2  3  1
        5  2  24  1
        6  2  25  1
        7  3  4  1
        8  3  26  1
        9  3  27  1
        10  4  5  1
        11  4  22  1
        12  4  23  1
        13  5  6  1
        14  5  28  1
        15  5  29  1
        16  6  30  1
        17  6  31  1
        18  7  8  2
        19  7  12  1
        20  7  13  1
        21  8  9  1
        22  8  20  1
        23  9  10  2
        24  9  19  1
        25  10  11  1
        26  10  32  1
        27  11  12  2
        28  11  42  1
        29  12  33  1
        30  13  14  2
        31  13  18  1
        32  14  15  1
        33  15  16  2
        34  15  34  1
        35  16  17  1
        36  17  18  2
        37  18  21  1
        38  21  35  1
        39  21  36  1
        40  22  37  1
        41  22  41  1
        42  22  43  1
        43  23  38  1
        44  23  39  1
        45  23  40  1
@<TRIPOS>SUBSTRUCTURE
       1 LIG             1 RESIDUE    0 **** ROOT      0
