@<TRIPOS>MOLECULE
LIG
46 48
SMALL
USER_CHARGES
@<TRIPOS>ATOM
      1 N1           24.610     41.576      3.180 aa            1 LIG       -0.510371
      2 C1           25.101     42.942      2.924 ab            1 LIG        0.065608
      3 C2           26.527     43.212      3.440 ad            1 LIG       -0.133995
      4 C3           27.512     42.177      2.886 ae            1 LIG        0.604999
      5 C4           27.008     40.819      3.401 af            1 LIG       -0.133995
      6 C5           25.591     40.514      2.862 ah            1 LIG        0.065608
      7 C6           19.689     40.580      5.695 ai            1 LIG       -0.064717
      8 C7           19.525     40.862      7.066 aj            1 LIG        0.066495
      9 C8           18.310     40.569      7.702 ak            1 LIG        0.105411
     10 C9           17.259     40.021      6.971 an            1 LIG       -0.196730
     11 C10          17.413     39.742      5.615 ao            1 LIG       -0.138966
     12 C11          18.622     40.021      4.982 ap            1 LIG       -0.184076
     13 C12          20.986     40.808      5.004 aq            1 LIG        0.312507
     14 N2           20.994     41.764      4.040 av            1 LIG       -0.530788
     15 C13          22.156     42.016      3.379 aw            1 LIG        0.274610
     16 C14          23.343     41.317      3.706 ax            1 LIG        0.521641
     17 N3           23.307     40.337      4.652 ay            1 LIG       -0.623378
     18 C15          22.143     40.074      5.286 az            1 LIG        0.524046
     19 Cl1          18.079     40.870      9.388 bb            1 LIG       -0.099053
     20 Cl2          20.804     41.619      7.963 bc            1 LIG       -0.091840
     21 N4           22.146     39.039      6.216 bd            1 LIG       -0.963307
     22 N5           28.877     42.451      3.525 bf            1 LIG       -0.884345
     23 C16          27.712     42.252      1.355 bg            1 LIG       -0.386924
     24 H1           25.025     43.164      1.859 bh            1 LIG        0.073316
     25 H2           24.448     43.623      3.459 bj            1 LIG        0.073316
     26 H3           26.507     43.214      4.531 bk            1 LIG        0.043382
     27 H4           26.835     44.220      3.180 bl            1 LIG        0.043382
     28 H5           26.967     40.788      4.495 bm            1 LIG        0.043382
     29 H6           27.696     40.023      3.144 bn            1 LIG        0.043382
     30 H7           25.608     40.384      1.778 bo            1 LIG        0.073316
     31 H8           25.276     39.554      3.268 bp            1 LIG        0.073316
     32 H9           16.324     39.787      7.463 bq            1 LIG        0.182177
     33 H10          18.735     39.775      3.935 bs            1 LIG        0.164504
     34 C17          21.994     42.979      2.203 bt            1 LIG       -0.301070
     35 H11          23.010     38.539      6.406 bu            1 LIG        0.407912
     36 H12          21.298     38.823      6.715 bv            1 LIG        0.407912
     37 H13          29.559     41.775      3.181 bw            1 LIG        0.432064
     38 H14          26.788     42.082      0.805 bx            1 LIG        0.110219
     39 H15          28.432     41.507      1.013 by            1 LIG        0.110219
     40 H16          28.079     43.232      1.045 bz            1 LIG        0.110219
     41 H17          29.196     43.378      3.276 cb            1 LIG        0.432064
     42 H18          16.605     39.294      5.054 ci            1 LIG        0.169051
     43 H19          21.238     43.736      2.412 cj            1 LIG        0.092478
     44 H20          21.679     42.424      1.319 ck            1 LIG        0.092478
     45 H21          22.890     43.517      1.921 cm            1 LIG        0.092478
     46 H22          28.826     42.395      4.534 cn            1 LIG        0.432064
@<TRIPOS>BOND
        1  1  2  1
        2  1  6  1
        3  1  16  1
        4  2  3  1
        5  2  24  1
        6  2  25  1
        7  3  4  1
        8  3  26  1
        9  3  27  1
        10  4  5  1
        11  4  22  1
        12  4  23  1
        13  5  6  1
        14  5  28  1
        15  5  29  1
        16  6  30  1
        17  6  31  1
        18  7  8  2
        19  7  12  1
        20  7  13  1
        21  8  9  1
        22  8  20  1
        23  9  10  2
        24  9  19  1
        25  10  11  1
        26  10  32  1
        27  11  12  2
        28  11  42  1
        29  12  33  1
        30  13  14  2
        31  13  18  1
        32  14  15  1
        33  15  16  2
        34  15  34  1
        35  16  17  1
        36  17  18  2
        37  18  21  1
        38  21  35  1
        39  21  36  1
        40  22  37  1
        41  22  41  1
        42  22  46  1
        43  23  38  1
        44  23  39  1
        45  23  40  1
        46  34  43  1
        47  34  44  1
        48  34  45  1
@<TRIPOS>SUBSTRUCTURE
       1 LIG             1 RESIDUE    0 **** ROOT      0
