@<TRIPOS>MOLECULE
LIG
46 48
SMALL
USER_CHARGES
@<TRIPOS>ATOM
      1 N1           24.549     41.410      2.958 aa            1 LIG       -0.492550
      2 C1           25.771     40.593      3.075 ab            1 LIG        0.061469
      3 C2           26.899     41.403      3.743 ad            1 LIG       -0.073914
      4 C3           27.201     42.720      3.016 ae            1 LIG        0.214290
      5 C4           25.901     43.484      2.707 af            1 LIG       -0.073914
      6 C5           24.821     42.567      2.092 ah            1 LIG        0.061469
      7 C6           19.680     40.513      5.564 ai            1 LIG        0.013454
      8 C7           19.388     40.806      6.910 aj            1 LIG        0.054187
      9 C8           18.090     40.606      7.405 ak            1 LIG        0.103318
     10 C9           17.098     40.087      6.571 an            1 LIG       -0.198745
     11 C10          17.389     39.777      5.245 ao            1 LIG       -0.136771
     12 C11          18.661     40.016      4.743 ap            1 LIG       -0.177661
     13 C12          20.997     40.760      4.963 aq            1 LIG       -0.118988
     14 C13          21.177     41.813      4.053 av            1 LIG        0.247314
     15 N2           22.335     42.047      3.413 aw            1 LIG       -0.630276
     16 C14          23.373     41.218      3.687 ax            1 LIG        0.785190
     17 N3           23.313     40.183      4.578 ay            1 LIG       -0.653552
     18 C15          22.134     39.963      5.201 az            1 LIG        0.614049
     19 Cl1          17.678     41.059      9.021 bb            1 LIG       -0.107195
     20 Cl2          20.610     41.501      7.930 bc            1 LIG       -0.114913
     21 N4           22.082     38.885      6.076 bd            1 LIG       -0.940720
     22 N5           28.096     43.610      3.924 bf            1 LIG       -0.077020
     23 H1           25.573     39.685      3.648 bg            1 LIG        0.076291
     24 H2           26.072     40.256      2.082 bh            1 LIG        0.076291
     25 H3           27.797     40.785      3.804 bj            1 LIG        0.051942
     26 H4           26.595     41.600      4.773 bk            1 LIG        0.051942
     27 H5           26.095     44.319      2.032 bl            1 LIG        0.051942
     28 H6           25.486     43.917      3.620 bm            1 LIG        0.051942
     29 H7           23.914     43.145      1.906 bn            1 LIG        0.076291
     30 H8           25.139     42.207      1.112 bo            1 LIG        0.076291
     31 H9           16.100     39.934      6.955 bp            1 LIG        0.179909
     32 H10          16.617     39.379      4.601 bq            1 LIG        0.169531
     33 H11          18.862     39.788      3.705 bs            1 LIG        0.162092
     34 C16          29.343     42.915      4.228 bt            1 LIG       -0.222417
     35 C17          28.404     44.864      3.244 bu            1 LIG       -0.222417
     36 H12          22.905     38.337      6.263 bv            1 LIG        0.415623
     37 H13          20.358     42.473      3.809 bw            1 LIG        0.062940
     38 H14          27.722     42.503      2.081 bx            1 LIG        0.029941
     39 H15          29.872     42.696      3.300 by            1 LIG        0.144836
     40 H16          29.123     41.984      4.750 bz            1 LIG        0.144836
     41 H17          29.967     43.547      4.860 cb            1 LIG        0.144836
     42 H18          28.928     44.653      2.312 ci            1 LIG        0.144836
     43 H19          29.036     45.480      3.885 cj            1 LIG        0.144836
     44 H20          27.478     45.397      3.027 ck            1 LIG        0.144836
     45 H21          27.610     43.811      4.787 cm            1 LIG        0.268705
     46 H22          21.260     38.695      6.629 cn            1 LIG        0.415623
@<TRIPOS>BOND
        1  1  2  1
        2  1  6  1
        3  1  16  1
        4  2  3  1
        5  2  23  1
        6  2  24  1
        7  3  4  1
        8  3  25  1
        9  3  26  1
        10  4  5  1
        11  4  22  1
        12  4  38  1
        13  5  6  1
        14  5  27  1
        15  5  28  1
        16  6  29  1
        17  6  30  1
        18  7  8  2
        19  7  12  1
        20  7  13  1
        21  8  9  1
        22  8  20  1
        23  9  10  2
        24  9  19  1
        25  10  11  1
        26  10  31  1
        27  11  12  2
        28  11  32  1
        29  12  33  1
        30  13  14  2
        31  13  18  1
        32  14  15  1
        33  14  37  1
        34  15  16  2
        35  16  17  1
        36  17  18  2
        37  18  21  1
        38  21  36  1
        39  21  46  1
        40  22  34  1
        41  22  35  1
        42  22  45  1
        43  34  39  1
        44  34  40  1
        45  34  41  1
        46  35  42  1
        47  35  43  1
        48  35  44  1
@<TRIPOS>SUBSTRUCTURE
       1 LIG             1 RESIDUE    0 **** ROOT      0
