@<TRIPOS>MOLECULE
LIG
51 54
SMALL
USER_CHARGES
@<TRIPOS>ATOM
      1 C1           -4.255     -3.103     13.571 aa            1 LIG        0.065353
      2 O1           -3.874     -2.353     14.717 ab            1 LIG       -0.352740
      3 C2           -2.526     -2.106     14.805 ad            1 LIG        0.191264
      4 C3           -1.750     -2.867     15.680 ae            1 LIG       -0.222573
      5 C4           -0.386     -2.611     15.815 af            1 LIG       -0.223841
      6 C5            0.222     -1.583     15.089 ah            1 LIG        0.272179
      7 N1            1.593     -1.349     15.306 ai            1 LIG       -0.566420
      8 C6            2.545     -0.469     14.754 aj            1 LIG        0.446422
      9 N2            2.218      0.355     13.719 ak            1 LIG       -0.555035
     10 C7            3.123      1.241     13.218 an            1 LIG        0.210548
     11 C8            4.421      1.304     13.717 ao            1 LIG       -0.119325
     12 N3            4.748      0.492     14.765 ap            1 LIG        0.062883
     13 C9            5.890      0.384     15.504 aq            1 LIG       -0.164170
     14 C10           5.572     -0.509     16.518 av            1 LIG        0.030919
     15 N4            4.382     -1.054     16.392 aw            1 LIG       -0.515328
     16 C11           3.833     -0.417     15.325 ax            1 LIG        0.172672
     17 C12           2.656      2.156     12.134 ay            1 LIG        0.106899
     18 C13           3.557      2.628     11.167 az            1 LIG       -0.185505
     19 C14           3.129      3.450     10.128 bb            1 LIG       -0.197061
     20 C15           1.788      3.808     10.032 bc            1 LIG        0.110780
     21 C16           1.328      4.678      8.900 bd            1 LIG       -0.250903
     22 C17           0.866      3.371     10.989 bf            1 LIG       -0.046514
     23 C18           1.314      2.558     12.042 bg            1 LIG       -0.248875
     24 C19          -0.578      3.765     10.896 bh            1 LIG        0.756445
     25 O2           -1.447      3.136     10.299 bj            1 LIG       -0.621262
     26 N5           -0.825      4.902     11.546 bk            1 LIG       -0.924105
     27 C20          -0.566     -0.826     14.211 bl            1 LIG       -0.299655
     28 C21          -1.939     -1.076     14.058 bm            1 LIG        0.202275
     29 O3           -2.699     -0.305     13.202 bn            1 LIG       -0.347590
     30 C22          -2.002      0.675     12.525 bo            1 LIG        0.061091
     31 H1           -3.757     -4.073     13.554 bp            1 LIG        0.055001
     32 H2           -4.013     -2.570     12.650 bq            1 LIG        0.055001
     33 H3           -5.331     -3.276     13.586 bs            1 LIG        0.055001
     34 H4           -2.210     -3.653     16.261 bt            1 LIG        0.154740
     35 H5            0.191     -3.210     16.503 bu            1 LIG        0.143934
     36 H6            2.025     -1.885     16.048 bv            1 LIG        0.364213
     37 H7            5.170      2.003     13.372 bw            1 LIG        0.115978
     38 H8            6.766      0.974     15.290 bx            1 LIG        0.147669
     39 H9            6.209     -0.833     17.330 by            1 LIG        0.148699
     40 H10           4.593      2.331     11.200 bz            1 LIG        0.158765
     41 H11           3.834      3.794      9.384 cb            1 LIG        0.150739
     42 H12           0.255      4.852      8.989 ci            1 LIG        0.092956
     43 H13           1.539      4.184      7.952 cj            1 LIG        0.092956
     44 H14           1.855      5.632      8.938 ck            1 LIG        0.092956
     45 H15           0.605      2.213     12.781 cm            1 LIG        0.139441
     46 H16          -1.725      5.354     11.616 cn            1 LIG        0.405754
     47 H17          -0.142      5.451     12.049 ct            1 LIG        0.405754
     48 H18          -0.155     -0.017     13.634 cw            1 LIG        0.196268
     49 H19          -2.685      1.226     11.879 da            1 LIG        0.058450
     50 H20          -1.222      0.213     11.920 db            1 LIG        0.058450
     51 H21          -1.548      1.359     13.242 dc            1 LIG        0.058450
@<TRIPOS>BOND
        1  1  2  1
        2  1  31  1
        3  1  32  1
        4  1  33  1
        5  2  3  1
        6  3  4  2
        7  3  28  1
        8  4  5  1
        9  4  34  1
        10  5  6  2
        11  5  35  1
        12  6  7  1
        13  6  27  1
        14  7  8  1
        15  7  36  1
        16  8  9  2
        17  8  16  1
        18  9  10  1
        19  10  11  2
        20  10  17  1
        21  11  12  1
        22  11  37  1
        23  12  13  1
        24  12  16  1
        25  13  14  2
        26  13  38  1
        27  14  15  1
        28  14  39  1
        29  15  16  2
        30  17  18  2
        31  17  23  1
        32  18  19  1
        33  18  40  1
        34  19  20  2
        35  19  41  1
        36  20  21  1
        37  20  22  1
        38  21  42  1
        39  21  43  1
        40  21  44  1
        41  22  23  2
        42  22  24  1
        43  23  45  1
        44  24  25  2
        45  24  26  1
        46  26  46  1
        47  26  47  1
        48  27  28  2
        49  27  48  1
        50  28  29  1
        51  29  30  1
        52  30  49  1
        53  30  50  1
        54  30  51  1
@<TRIPOS>SUBSTRUCTURE
       1 LIG             1 RESIDUE    0 **** ROOT      0
