@<TRIPOS>MOLECULE
LIG
45 49
SMALL
USER_CHARGES
@<TRIPOS>ATOM
      1 N1           90.278     48.145    266.314 aa            1 LIG       -0.544530
      2 C1           91.617     48.345    266.674 ab            1 LIG        0.278476
      3 C2           91.975     49.538    267.291 ad            1 LIG       -0.245075
      4 C3           93.287     49.804    267.690 ae            1 LIG        0.000265
      5 C4           94.273     48.786    267.512 af            1 LIG        0.245132
      6 C5           93.896     47.547    266.905 ah            1 LIG        0.294543
      7 C6           92.570     47.355    266.470 ai            1 LIG       -0.308047
      8 C7           93.591     51.103    268.337 aj            1 LIG        0.066271
      9 C8           94.570     51.949    267.793 ak            1 LIG       -0.182717
     10 C9           94.877     53.183    268.363 an            1 LIG       -0.195359
     11 C10          94.174     53.577    269.503 ao            1 LIG        0.069830
     12 C11          93.211     52.678    270.081 ap            1 LIG        0.063214
     13 C12          92.896     51.456    269.491 aq            1 LIG       -0.235332
     14 C13          94.195     54.742    270.324 av            1 LIG       -0.220687
     15 C14          93.320     54.504    271.341 aw            1 LIG       -0.137539
     16 N2           92.761     53.279    271.241 ax            1 LIG        0.035919
     17 N3           94.793     46.535    266.755 ay            1 LIG       -0.490265
     18 C15          96.059     46.746    267.179 az            1 LIG        0.171897
     19 C16          96.446     47.959    267.736 bb            1 LIG        0.164860
     20 N4           95.562     48.968    267.933 bc            1 LIG       -0.485230
     21 C17          91.851     52.731    272.245 bd            1 LIG       -0.190260
     22 C18          89.712     47.350    265.298 bf            1 LIG        0.151560
     23 C19          88.408     46.822    265.394 bg            1 LIG        0.117941
     24 C20          87.883     46.101    264.316 bh            1 LIG       -0.264997
     25 C21          88.664     45.936    263.176 bj            1 LIG        0.240502
     26 N5           89.919     46.431    263.054 bk            1 LIG       -0.475618
     27 C22          90.419     47.117    264.111 bl            1 LIG        0.179837
     28 C23          87.585     46.964    266.591 bm            1 LIG        0.211798
     29 N6           86.935     47.077    267.541 bn            1 LIG       -0.402269
     30 H1           89.602     48.633    266.883 bo            1 LIG        0.346082
     31 H2           91.217     50.291    267.454 bp            1 LIG        0.153043
     32 H3           92.281     46.408    266.045 bq            1 LIG        0.165148
     33 H4           95.091     51.654    266.894 bs            1 LIG        0.134122
     34 H5           95.630     53.826    267.920 bt            1 LIG        0.139300
     35 H6           92.141     50.804    269.924 bu            1 LIG        0.160998
     36 H7           94.792     55.637    270.245 bv            1 LIG        0.142728
     37 H8           93.070     55.113    272.187 bw            1 LIG        0.147849
     38 H9           96.764     45.946    267.008 bx            1 LIG        0.057810
     39 H10          97.465     48.156    268.027 by            1 LIG        0.053592
     40 H11          91.709     53.465    273.044 bz            1 LIG        0.096227
     41 H12          92.299     51.841    272.682 cb            1 LIG        0.096227
     42 H13          90.890     52.515    271.787 ci            1 LIG        0.096227
     43 H14          86.892     45.669    264.357 cj            1 LIG        0.152788
     44 H15          88.272     45.382    262.343 ck            1 LIG        0.065632
     45 H16          91.417     47.499    263.988 cm            1 LIG        0.078105
@<TRIPOS>BOND
        1  1  2  1
        2  1  22  1
        3  1  30  1
        4  2  3  2
        5  2  7  1
        6  3  4  1
        7  3  31  1
        8  4  5  2
        9  4  8  1
        10  5  20  1
        11  5  6  1
        12  6  7  2
        13  6  17  1
        14  7  32  1
        15  8  9  2
        16  8  13  1
        17  9  10  1
        18  9  33  1
        19  10  11  2
        20  10  34  1
        21  11  14  1
        22  11  12  1
        23  12  13  2
        24  12  16  1
        25  13  35  1
        26  14  15  2
        27  14  36  1
        28  15  16  1
        29  15  37  1
        30  16  21  1
        31  17  18  2
        32  18  19  1
        33  18  38  1
        34  19  20  2
        35  19  39  1
        36  21  40  1
        37  21  41  1
        38  21  42  1
        39  22  23  2
        40  22  27  1
        41  23  24  1
        42  23  28  1
        43  24  25  2
        44  24  43  1
        45  25  26  1
        46  25  44  1
        47  26  27  2
        48  27  45  1
        49  28  29  3
@<TRIPOS>SUBSTRUCTURE
       1 LIG             1 RESIDUE    0 **** ROOT      0
