@<TRIPOS>MOLECULE
LIG
48 51
SMALL
USER_CHARGES
@<TRIPOS>ATOM
      1 C1           -4.256     -3.106     13.567 aa            1 LIG        0.065151
      2 O1           -3.873     -2.356     14.709 ab            1 LIG       -0.352179
      3 C2           -2.526     -2.109     14.814 ad            1 LIG        0.191577
      4 C3           -1.750     -2.868     15.681 ae            1 LIG       -0.222465
      5 C4           -0.397     -2.608     15.820 af            1 LIG       -0.223652
      6 C5            0.221     -1.582     15.096 ah            1 LIG        0.272073
      7 N1            1.603     -1.357     15.332 ai            1 LIG       -0.565872
      8 C6            2.530     -0.442     14.781 aj            1 LIG        0.446667
      9 N2            2.171      0.383     13.748 ak            1 LIG       -0.555428
     10 C7            3.109      1.231     13.227 an            1 LIG        0.210141
     11 C8            4.410      1.278     13.703 ao            1 LIG       -0.117229
     12 N3            4.743      0.491     14.768 ap            1 LIG        0.064062
     13 C9            5.895      0.387     15.484 aq            1 LIG       -0.163482
     14 C10           5.595     -0.534     16.518 av            1 LIG        0.031342
     15 N4            4.383     -1.051     16.366 aw            1 LIG       -0.514338
     16 C11           3.836     -0.402     15.329 ax            1 LIG        0.173038
     17 C12           2.647      2.139     12.126 ay            1 LIG        0.115790
     18 C13           3.556      2.637     11.175 az            1 LIG       -0.188567
     19 C14           3.119      3.468     10.146 bb            1 LIG       -0.183073
     20 C15           1.764      3.825     10.059 bc            1 LIG        0.013704
     21 C16           0.862      3.345     11.011 bd            1 LIG       -0.183073
     22 C17           1.299      2.513     12.032 bf            1 LIG       -0.188567
     23 C18           1.292      4.729      8.961 bg            1 LIG        0.750664
     24 O2            2.088      5.346      8.250 bh            1 LIG       -0.621208
     25 N5           -0.032      4.814      8.782 bj            1 LIG       -0.926153
     26 C19          -0.554     -0.814     14.198 bk            1 LIG       -0.299732
     27 C20          -1.943     -1.083     14.062 bl            1 LIG        0.202354
     28 O3           -2.748     -0.343     13.209 bm            1 LIG       -0.346714
     29 C21          -2.216      0.655     12.358 bn            1 LIG        0.060896
     30 H1           -5.337     -3.248     13.582 bo            1 LIG        0.055278
     31 H2           -3.790     -4.093     13.560 bp            1 LIG        0.055278
     32 H3           -4.004     -2.588     12.641 bq            1 LIG        0.055278
     33 H4           -2.204     -3.658     16.263 bs            1 LIG        0.155127
     34 H5            0.191     -3.203     16.510 bt            1 LIG        0.144325
     35 H6            1.993     -1.942     16.055 bu            1 LIG        0.364593
     36 H7            5.171      1.945     13.323 bv            1 LIG        0.121549
     37 H8            6.779      0.968     15.276 bw            1 LIG        0.149752
     38 H9            6.240     -0.820     17.328 bx            1 LIG        0.149788
     39 H10           4.597      2.361     11.225 by            1 LIG        0.153035
     40 H11           3.829      3.828      9.416 bz            1 LIG        0.157824
     41 H12          -0.178      3.624     10.966 cb            1 LIG        0.157824
     42 H13           0.591      2.161     12.768 ci            1 LIG        0.153035
     43 H14          -0.421      5.389      8.051 cj            1 LIG        0.405867
     44 H15          -0.648      4.295      9.384 ck            1 LIG        0.405867
     45 H16          -0.107     -0.026     13.633 cm            1 LIG        0.195422
     46 H17          -3.036      1.079     11.775 cn            1 LIG        0.058143
     47 H18          -1.492      0.241     11.655 ct            1 LIG        0.058143
     48 H19          -1.768      1.464     12.934 cw            1 LIG        0.058143
@<TRIPOS>BOND
        1  1  2  1
        2  1  30  1
        3  1  31  1
        4  1  32  1
        5  2  3  1
        6  3  4  2
        7  3  27  1
        8  4  5  1
        9  4  33  1
        10  5  6  2
        11  5  34  1
        12  6  7  1
        13  6  26  1
        14  7  8  1
        15  7  35  1
        16  8  9  2
        17  8  16  1
        18  9  10  1
        19  10  11  2
        20  10  17  1
        21  11  12  1
        22  11  36  1
        23  12  13  1
        24  12  16  1
        25  13  14  2
        26  13  37  1
        27  14  15  1
        28  14  38  1
        29  15  16  2
        30  17  18  2
        31  17  22  1
        32  18  19  1
        33  18  39  1
        34  19  20  2
        35  19  40  1
        36  20  21  1
        37  20  23  1
        38  21  22  2
        39  21  41  1
        40  22  42  1
        41  23  24  2
        42  23  25  1
        43  25  43  1
        44  25  44  1
        45  26  27  2
        46  26  45  1
        47  27  28  1
        48  28  29  1
        49  29  46  1
        50  29  47  1
        51  29  48  1
@<TRIPOS>SUBSTRUCTURE
       1 LIG             1 RESIDUE    0 **** ROOT      0
