@<TRIPOS>MOLECULE
LIG
43 46
SMALL
USER_CHARGES
@<TRIPOS>ATOM
      1 C1           25.455     34.063     51.868 aa            1 LIG       -0.216410
      2 C2           24.246     33.566     52.608 ab            1 LIG        0.191193
      3 C3           23.047     33.122     52.069 ad            1 LIG       -0.159729
      4 S1           21.955     32.727     53.352 ae            1 LIG       -0.069460
      5 C4           23.199     33.166     54.489 af            1 LIG        0.249103
      6 N1           24.315     33.573     53.928 ah            1 LIG       -0.481401
      7 C5           23.011     32.987     55.967 ai            1 LIG        0.110302
      8 C6           24.090     33.125     56.852 aj            1 LIG       -0.190344
      9 C7           23.948     32.803     58.202 ak            1 LIG       -0.134795
     10 C8           22.722     32.350     58.688 an            1 LIG       -0.192902
     11 C9           21.622     32.254     57.833 ao            1 LIG        0.089143
     12 C10          20.265     31.786     58.346 ap            1 LIG        0.029317
     13 N2           19.938     30.403     57.952 aq            1 LIG        0.045637
     14 N3           19.424     30.233     56.666 av            1 LIG       -0.389094
     15 C11          19.083     29.074     56.195 aw            1 LIG        0.212602
     16 C12          19.323     27.934     57.067 ax            1 LIG       -0.097933
     17 C13          19.851     28.086     58.302 ay            1 LIG       -0.191551
     18 C14          20.198     29.388     58.843 az            1 LIG        0.588462
     19 O1           20.647     29.527     59.980 bb            1 LIG       -0.639562
     20 C15          18.471     28.905     54.852 bc            1 LIG        0.118065
     21 C16          18.241     27.641     54.281 bd            1 LIG       -0.265910
     22 C17          17.594     27.518     53.051 bf            1 LIG        0.224521
     23 F1           17.360     26.292     52.533 bg            1 LIG       -0.160664
     24 C18          17.181     28.654     52.360 bh            1 LIG       -0.275003
     25 C19          17.407     29.916     52.902 bj            1 LIG        0.224521
     26 F2           16.999     31.023     52.241 bk            1 LIG       -0.160664
     27 C20          18.049     30.041     54.133 bl            1 LIG       -0.265910
     28 C21          21.771     32.591     56.485 bm            1 LIG       -0.245420
     29 H1           25.602     35.123     52.068 bn            1 LIG        0.089431
     30 H2           25.350     33.957     50.790 bo            1 LIG        0.089431
     31 H3           26.361     33.526     52.150 bp            1 LIG        0.089431
     32 H4           22.755     33.041     51.033 bq            1 LIG        0.158052
     33 H5           25.061     33.434     56.492 bs            1 LIG        0.152335
     34 H6           24.802     32.879     58.864 bt            1 LIG        0.148411
     35 H7           22.630     32.062     59.724 bu            1 LIG        0.146435
     36 H8           20.206     31.934     59.428 bv            1 LIG        0.082524
     37 H9           19.497     32.453     57.949 bw            1 LIG        0.082524
     38 H10          19.088     26.924     56.764 bx            1 LIG        0.120088
     39 H11          20.025     27.218     58.921 by            1 LIG        0.141382
     40 H12          18.542     26.727     54.767 bz            1 LIG        0.185004
     41 H13          16.680     28.553     51.410 cb            1 LIG        0.190093
     42 H14          18.192     31.035     54.528 ci            1 LIG        0.185004
     43 H15          20.915     32.486     55.836 cj            1 LIG        0.193740
@<TRIPOS>BOND
        1  1  2  1
        2  1  29  1
        3  1  30  1
        4  1  31  1
        5  2  3  2
        6  2  6  1
        7  3  4  1
        8  3  32  1
        9  4  5  1
        10  5  6  2
        11  5  7  1
        12  7  8  2
        13  7  28  1
        14  8  9  1
        15  8  33  1
        16  9  10  2
        17  9  34  1
        18  10  11  1
        19  10  35  1
        20  11  12  1
        21  11  28  2
        22  12  13  1
        23  12  36  1
        24  12  37  1
        25  13  14  1
        26  13  18  1
        27  14  15  2
        28  15  16  1
        29  15  20  1
        30  16  17  2
        31  16  38  1
        32  17  18  1
        33  17  39  1
        34  18  19  2
        35  20  21  2
        36  20  27  1
        37  21  22  1
        38  21  40  1
        39  22  23  1
        40  22  24  2
        41  24  25  1
        42  24  41  1
        43  25  26  1
        44  25  27  2
        45  27  42  1
        46  28  43  1
@<TRIPOS>SUBSTRUCTURE
       1 LIG             1 RESIDUE    0 **** ROOT      0
