@<TRIPOS>MOLECULE
LIG
45 48
SMALL
USER_CHARGES
@<TRIPOS>ATOM
      1 C1          -14.498    -14.808    -27.604 aa            1 LIG       -0.195768
      2 C2          -15.086    -15.615    -26.612 ab            1 LIG        0.234446
      3 C3          -14.578    -13.419    -27.491 ad            1 LIG       -0.197860
      4 C4          -15.797    -15.018    -25.562 ae            1 LIG       -0.051400
      5 N1          -14.950    -17.016    -26.669 af            1 LIG       -0.500354
      6 C5          -15.260    -12.830    -26.430 ah            1 LIG        0.223583
      7 C6          -15.887    -13.624    -25.465 ai            1 LIG       -0.246311
      8 C7          -16.471    -15.921    -24.549 aj            1 LIG        0.602394
      9 N2          -16.152    -17.233    -24.741 ak            1 LIG       -0.407370
     10 O1          -17.246    -15.561    -23.663 an            1 LIG       -0.586750
     11 C8          -15.432    -17.811    -25.771 ao            1 LIG        0.331283
     12 C9          -15.274    -19.288    -25.845 ap            1 LIG        0.093915
     13 C10         -14.765    -19.871    -27.016 aq            1 LIG       -0.182453
     14 C11         -14.626    -21.250    -27.128 av            1 LIG       -0.214522
     15 C12         -14.982    -22.088    -26.068 aw            1 LIG        0.260430
     16 C13         -15.474    -21.514    -24.892 ax            1 LIG       -0.214522
     17 C14         -15.625    -20.132    -24.781 ay            1 LIG       -0.182453
     18 F1          -15.311    -11.482    -26.354 az            1 LIG       -0.156913
     19 N3          -14.941    -23.461    -26.202 bb            1 LIG       -0.380315
     20 C15         -16.155    -23.952    -26.997 bc            1 LIG        0.056408
     21 C16         -16.156    -25.478    -27.137 bd            1 LIG        0.021449
     22 N4          -14.956    -25.853    -28.009 bf            1 LIG       -0.254827
     23 C17         -13.665    -25.518    -27.258 bg            1 LIG        0.021449
     24 C18         -13.635    -24.019    -26.815 bh            1 LIG        0.056408
     25 C19         -15.002    -27.355    -28.387 bj            1 LIG       -0.158708
     26 H1          -14.111    -12.784    -28.231 bk            1 LIG        0.178571
     27 H2          -16.426    -13.152    -24.654 bl            1 LIG        0.196183
     28 H3          -16.644    -17.852    -24.111 bm            1 LIG        0.324518
     29 H4          -14.491    -19.263    -27.867 bn            1 LIG        0.169364
     30 H5          -14.268    -21.653    -28.063 bo            1 LIG        0.141895
     31 H6          -15.762    -22.142    -24.062 bp            1 LIG        0.141895
     32 H7          -16.020    -19.734    -23.857 bq            1 LIG        0.169364
     33 H8          -16.174    -23.506    -27.991 bs            1 LIG        0.082184
     34 H9          -17.055    -23.603    -26.511 bt            1 LIG        0.082184
     35 H10         -16.087    -25.994    -26.181 bu            1 LIG        0.109251
     36 H11         -17.044    -25.838    -27.648 bv            1 LIG        0.109251
     37 H12         -13.606    -26.230    -26.448 bw            1 LIG        0.109251
     38 H13         -12.918    -25.793    -27.987 bx            1 LIG        0.109251
     39 H14         -13.356    -23.408    -27.668 by            1 LIG        0.082184
     40 H15         -12.830    -23.876    -26.091 bz            1 LIG        0.082184
     41 H16         -14.155    -27.553    -29.046 cb            1 LIG        0.138978
     42 H17         -15.943    -27.553    -28.901 ci            1 LIG        0.138978
     43 H18         -14.932    -27.949    -27.475 cj            1 LIG        0.138978
     44 H19         -14.994    -25.286    -28.848 ck            1 LIG        0.349908
     45 H20         -13.991    -15.265    -28.441 cm            1 LIG        0.174392
@<TRIPOS>BOND
        1  1  2  2
        2  1  3  1
        3  1  45  1
        4  2  4  1
        5  2  5  1
        6  3  6  2
        7  3  26  1
        8  4  7  2
        9  4  8  1
        10  5  11  2
        11  6  7  1
        12  6  18  1
        13  7  27  1
        14  8  9  1
        15  8  10  2
        16  9  11  1
        17  9  28  1
        18  11  12  1
        19  12  13  2
        20  12  17  1
        21  13  14  1
        22  13  29  1
        23  14  15  2
        24  14  30  1
        25  15  16  1
        26  15  19  1
        27  16  17  2
        28  16  31  1
        29  17  32  1
        30  19  20  1
        31  19  24  1
        32  20  21  1
        33  20  33  1
        34  20  34  1
        35  21  22  1
        36  21  35  1
        37  21  36  1
        38  22  23  1
        39  22  25  1
        40  22  44  1
        41  23  24  1
        42  23  37  1
        43  23  38  1
        44  24  39  1
        45  24  40  1
        46  25  41  1
        47  25  42  1
        48  25  43  1
@<TRIPOS>SUBSTRUCTURE
       1 LIG             1 RESIDUE    0 **** ROOT      0
