@<TRIPOS>MOLECULE
LIG
47 50
SMALL
USER_CHARGES
@<TRIPOS>ATOM
      1 C1           93.287     49.784    267.677 aa            1 LIG       -0.000861
      2 C2           92.572     47.312    266.497 ab            1 LIG       -0.306678
      3 C3           91.614     48.309    266.675 ad            1 LIG        0.283569
      4 C4           91.973     49.513    267.269 ae            1 LIG       -0.239884
      5 C5           93.898     47.515    266.940 af            1 LIG        0.295364
      6 C6           94.275     48.763    267.524 ah            1 LIG        0.246432
      7 N1           95.563     48.960    267.955 ai            1 LIG       -0.483818
      8 C7           96.453     47.952    267.779 aj            1 LIG        0.167089
      9 C8           96.072     46.733    267.226 ak            1 LIG        0.172766
     10 N2           94.801     46.499    266.824 an            1 LIG       -0.486627
     11 C9           93.591     51.085    268.314 ao            1 LIG        0.077795
     12 C10          92.847     51.565    269.401 ap            1 LIG       -0.163964
     13 C11          93.140     52.795    269.987 aq            1 LIG       -0.135069
     14 C12          94.634     51.874    267.824 av            1 LIG       -0.225958
     15 N3           90.280     48.102    266.313 aw            1 LIG       -0.560553
     16 C13          89.713     47.330    265.285 ax            1 LIG        0.149895
     17 C14          90.409     47.121    264.089 ay            1 LIG        0.177442
     18 N4           89.894     46.435    263.035 az            1 LIG       -0.465376
     19 C15          88.642     45.929    263.165 bb            1 LIG        0.239842
     20 C16          87.884     46.072    264.323 bc            1 LIG       -0.272284
     21 C17          88.421     46.794    265.395 bd            1 LIG       -0.024351
     22 S1           87.480     46.912    266.924 bf            1 LIG        0.919604
     23 O1           86.119     46.433    266.665 bg            1 LIG       -0.547843
     24 O2           87.695     48.255    267.476 bh            1 LIG       -0.547843
     25 C18          88.355     45.669    268.026 bj            1 LIG       -0.370204
     26 C19          94.930     53.105    268.396 bk            1 LIG        0.196643
     27 C20          94.202     53.559    269.501 bl            1 LIG       -0.190433
     28 C21          96.083     55.721    268.380 bm            1 LIG       -0.139917
     29 S2           96.182     54.075    267.651 bn            1 LIG       -0.272388
     30 H1           92.293     46.362    266.067 bo            1 LIG        0.168796
     31 H2           91.216     50.270    267.406 bp            1 LIG        0.162304
     32 H3           97.474     48.152    268.066 bq            1 LIG        0.059033
     33 H4           96.783     45.929    267.090 bs            1 LIG        0.061420
     34 H5           92.030     50.976    269.804 bt            1 LIG        0.161337
     35 H6           92.576     53.147    270.837 bu            1 LIG        0.149591
     36 H7           95.193     51.542    266.962 bv            1 LIG        0.154879
     37 H8           89.586     48.572    266.882 bw            1 LIG        0.380257
     38 H9           91.406     47.516    263.959 bx            1 LIG        0.090375
     39 H10          88.256     45.379    262.322 by            1 LIG        0.078789
     40 H11          86.909     45.618    264.393 bz            1 LIG        0.170324
     41 H12          87.831     45.609    268.980 cb            1 LIG        0.148336
     42 H13          89.384     45.994    268.169 ci            1 LIG        0.148336
     43 H14          88.335     44.704    267.529 cj            1 LIG        0.148336
     44 H15          94.421     54.507    269.969 ck            1 LIG        0.153657
     45 H16          96.776     56.365    267.833 cm            1 LIG        0.090612
     46 H17          96.326     55.660    269.447 cn            1 LIG        0.090612
     47 H18          95.081     56.142    268.285 ct            1 LIG        0.090612
@<TRIPOS>BOND
        1  1  4  2
        2  1  6  1
        3  1  11  1
        4  2  3  2
        5  2  5  1
        6  2  30  1
        7  3  4  1
        8  3  15  1
        9  4  31  1
        10  5  6  2
        11  5  10  1
        12  6  7  1
        13  7  8  2
        14  8  9  1
        15  8  32  1
        16  9  10  2
        17  9  33  1
        18  11  12  2
        19  11  14  1
        20  12  13  1
        21  12  34  1
        22  13  27  2
        23  13  35  1
        24  14  26  2
        25  14  36  1
        26  15  16  1
        27  15  37  1
        28  16  17  2
        29  16  21  1
        30  17  18  1
        31  17  38  1
        32  18  19  2
        33  19  20  1
        34  19  39  1
        35  20  21  2
        36  20  40  1
        37  21  22  1
        38  22  23  2
        39  22  24  2
        40  22  25  1
        41  25  41  1
        42  25  42  1
        43  25  43  1
        44  26  27  1
        45  26  29  1
        46  27  44  1
        47  28  29  1
        48  28  45  1
        49  28  46  1
        50  28  47  1
@<TRIPOS>SUBSTRUCTURE
       1 LIG             1 RESIDUE    0 **** ROOT      0
