@<TRIPOS>MOLECULE
LIG
34 35
SMALL
USER_CHARGES
@<TRIPOS>ATOM
      1 C1           27.318      0.218    -11.543 aa            1 LIG        0.259301
      2 C2           24.817     -0.033    -11.498 ab            1 LIG        0.039203
      3 C3           26.032     -0.220    -10.824 ad            1 LIG       -0.052584
      4 C4           26.033     -0.776     -9.528 ae            1 LIG       -0.015360
      5 C5           24.808     -1.084     -8.920 af            1 LIG       -0.185597
      6 C6           23.610     -0.938     -9.609 ah            1 LIG       -0.196970
      7 C7           23.608     -0.432    -10.916 ai            1 LIG        0.216800
      8 O1           22.478     -0.303    -11.693 aj            1 LIG       -0.302372
      9 C8           21.241     -0.579    -11.188 ak            1 LIG        0.280969
     10 C9           20.668     -1.834    -11.399 an            1 LIG       -0.276135
     11 C10          19.422     -2.108    -10.866 ao            1 LIG        0.227542
     12 C11          18.743     -1.138    -10.142 ap            1 LIG       -0.255470
     13 C12          19.284      0.121     -9.961 aq            1 LIG        0.192335
     14 C13          18.573      1.164     -9.251 av            1 LIG        0.222555
     15 C14          20.557      0.395    -10.470 aw            1 LIG       -0.251294
     16 S1           27.539     -1.076     -8.568 ax            1 LIG        0.858463
     17 O2           27.192     -2.024     -7.472 ay            1 LIG       -0.501643
     18 O3           28.631     -1.470     -9.448 az            1 LIG       -0.501643
     19 C15          27.938      0.594     -7.784 bb            1 LIG        0.271549
     20 F1           27.584      1.577     -8.619 bc            1 LIG       -0.180774
     21 F2           27.232      0.722     -6.675 bd            1 LIG       -0.180774
     22 Cl1          24.745      0.704    -13.074 bf            1 LIG       -0.088454
     23 O4           27.729      1.498    -11.138 bg            1 LIG       -0.693085
     24 F3           18.854     -3.324    -11.057 bh            1 LIG       -0.156581
     25 N1           17.999      1.990     -8.662 bj            1 LIG       -0.367634
     26 H1           28.119     -0.505    -11.403 bk            1 LIG        0.048593
     27 H2           27.208      0.216    -12.608 bl            1 LIG        0.048593
     28 H3           24.773     -1.461     -7.904 bm            1 LIG        0.205562
     29 H4           22.689     -1.236     -9.128 bn            1 LIG        0.200430
     30 H5           21.206     -2.590    -11.954 bo            1 LIG        0.172166
     31 H6           17.791     -1.403     -9.707 bp            1 LIG        0.182284
     32 H7           21.008      1.355    -10.274 bq            1 LIG        0.181669
     33 H8           29.003      0.666     -7.602 bs            1 LIG        0.123680
     34 H9           28.546      1.746    -11.621 bt            1 LIG        0.474674
@<TRIPOS>BOND
        1  1  3  1
        2  1  23  1
        3  1  26  1
        4  1  27  1
        5  2  3  2
        6  2  7  1
        7  2  22  1
        8  3  4  1
        9  4  5  2
        10  4  16  1
        11  5  6  1
        12  5  28  1
        13  6  7  2
        14  6  29  1
        15  7  8  1
        16  8  9  1
        17  9  10  2
        18  9  15  1
        19  10  11  1
        20  10  30  1
        21  11  12  2
        22  11  24  1
        23  12  13  1
        24  12  31  1
        25  13  14  1
        26  13  15  2
        27  14  25  3
        28  15  32  1
        29  16  17  2
        30  16  18  2
        31  16  19  1
        32  19  20  1
        33  19  21  1
        34  19  33  1
        35  23  34  1
@<TRIPOS>SUBSTRUCTURE
       1 LIG             1 RESIDUE    0 **** ROOT      0
