@<TRIPOS>MOLECULE
LIG
62 65
SMALL
USER_CHARGES
@<TRIPOS>ATOM
      1 C1           24.514     29.695     47.959 aa            1 LIG       -0.332433
      2 N1           25.048     30.991     47.312 ab            1 LIG       -0.092533
      3 C2           25.035     30.872     45.771 ad            1 LIG       -0.332433
      4 C3           24.281     32.246     47.792 ae            1 LIG        0.024298
      5 C4           24.689     32.625     49.227 af            1 LIG       -0.077741
      6 C5           24.070     33.961     49.666 ah            1 LIG        0.220488
      7 O1           24.699     34.378     50.870 ai            1 LIG       -0.416234
      8 C6           24.268     33.926     52.099 aj            1 LIG        0.078956
      9 C7           25.096     34.182     53.192 ak            1 LIG        0.213430
     10 N2           24.750     33.888     54.468 an            1 LIG       -0.555453
     11 C8           23.528     33.315     54.660 ao            1 LIG        0.605095
     12 N3           22.656     33.007     53.656 ap            1 LIG       -0.555453
     13 C9           23.038     33.316     52.387 aq            1 LIG        0.213430
     14 C10          23.144     32.950     56.066 av            1 LIG       -0.025152
     15 C11          24.101     32.952     57.094 aw            1 LIG       -0.165257
     16 C12          23.781     32.546     58.386 ax            1 LIG       -0.132112
     17 C13          22.487     32.132     58.683 ay            1 LIG       -0.186110
     18 C14          21.503     32.139     57.694 az            1 LIG        0.097765
     19 C15          20.076     31.726     58.042 bb            1 LIG        0.027336
     20 N4           19.779     30.326     57.697 bc            1 LIG        0.041248
     21 N5           19.322     30.106     56.397 bd            1 LIG       -0.401844
     22 C16          19.058     28.923     55.940 bf            1 LIG        0.214121
     23 C17          19.264     27.819     56.863 bg            1 LIG       -0.097404
     24 C18          19.725     28.023     58.120 bh            1 LIG       -0.191880
     25 C19          20.027     29.347     58.640 bj            1 LIG        0.559838
     26 O2           20.453     29.526     59.783 bk            1 LIG       -0.621772
     27 C20          18.586     28.695     54.554 bl            1 LIG        0.109171
     28 C21          18.837     29.671     53.572 bm            1 LIG       -0.182024
     29 C22          18.413     29.491     52.257 bn            1 LIG       -0.130244
     30 C23          17.733     28.332     51.895 bo            1 LIG       -0.174489
     31 C24          17.479     27.345     52.851 bp            1 LIG        0.195673
     32 C25          17.905     27.525     54.172 bq            1 LIG       -0.232709
     33 C26          16.789     26.124     52.458 bs            1 LIG        0.205862
     34 N6           16.247     25.152     52.143 bt            1 LIG       -0.385145
     35 C27          21.835     32.551     56.397 bu            1 LIG       -0.220806
     36 H1           25.098     28.854     47.579 bv            1 LIG        0.176125
     37 H2           23.460     29.588     47.700 bw            1 LIG        0.176125
     38 H3           24.646     29.807     49.032 bx            1 LIG        0.176125
     39 H4           25.621     29.993     45.498 by            1 LIG        0.176125
     40 H5           25.492     31.776     45.365 bz            1 LIG        0.176125
     41 H6           23.998     30.773     45.445 cb            1 LIG        0.176125
     42 H7           23.214     32.044     47.675 ci            1 LIG        0.115620
     43 H8           24.564     33.045     47.105 cj            1 LIG        0.115620
     44 H9           25.777     32.718     49.282 ck            1 LIG        0.070672
     45 H10          24.410     31.854     49.945 cm            1 LIG        0.070672
     46 H11          22.977     33.926     49.709 cn            1 LIG        0.021900
     47 H12          24.318     34.724     48.925 ct            1 LIG        0.021900
     48 H13          26.043     34.682     53.047 cw            1 LIG        0.067657
     49 H14          22.299     33.119     51.622 da            1 LIG        0.067657
     50 H15          25.120     33.249     56.894 db            1 LIG        0.167840
     51 H16          24.543     32.545     59.152 dc            1 LIG        0.156323
     52 H17          22.248     31.803     59.684 dd            1 LIG        0.163424
     53 H18          19.380     32.370     57.502 de            1 LIG        0.090295
     54 H19          19.873     31.941     59.095 df            1 LIG        0.090295
     55 H20          19.082     26.795     56.570 dg            1 LIG        0.120753
     56 H21          19.886     27.180     58.773 dh            1 LIG        0.140753
     57 H22          19.371     30.578     53.819 di            1 LIG        0.167101
     58 H23          18.616     30.252     51.517 dj            1 LIG        0.156414
     59 H24          17.417     28.206     50.869 dk            1 LIG        0.157531
     60 H25          17.698     26.747     54.894 dl            1 LIG        0.152254
     61 H26          21.068     32.537     55.634 dm            1 LIG        0.171950
     62 H27          26.012     31.109     47.616 dn            1 LIG        0.359136
@<TRIPOS>BOND
        1  1  2  1
        2  1  36  1
        3  1  37  1
        4  1  38  1
        5  2  3  1
        6  2  4  1
        7  2  62  1
        8  3  39  1
        9  3  40  1
        10  3  41  1
        11  4  5  1
        12  4  42  1
        13  4  43  1
        14  5  6  1
        15  5  44  1
        16  5  45  1
        17  6  7  1
        18  6  46  1
        19  6  47  1
        20  7  8  1
        21  8  9  2
        22  8  13  1
        23  9  10  1
        24  9  48  1
        25  10  11  2
        26  11  12  1
        27  11  14  1
        28  12  13  2
        29  13  49  1
        30  14  15  2
        31  14  35  1
        32  15  16  1
        33  15  50  1
        34  16  17  2
        35  16  51  1
        36  17  18  1
        37  17  52  1
        38  18  19  1
        39  18  35  2
        40  19  20  1
        41  19  53  1
        42  19  54  1
        43  20  21  1
        44  20  25  1
        45  21  22  2
        46  22  23  1
        47  22  27  1
        48  23  24  2
        49  23  55  1
        50  24  25  1
        51  24  56  1
        52  25  26  2
        53  27  28  2
        54  27  32  1
        55  28  29  1
        56  28  57  1
        57  29  30  2
        58  29  58  1
        59  30  31  1
        60  30  59  1
        61  31  32  2
        62  31  33  1
        63  32  60  1
        64  33  34  3
        65  35  61  1
@<TRIPOS>SUBSTRUCTURE
       1 LIG             1 RESIDUE    0 **** ROOT      0
