@<TRIPOS>MOLECULE
LIG
50 54
SMALL
USER_CHARGES
@<TRIPOS>ATOM
      1 C1           -6.373     12.349    -11.988 aa            1 LIG        0.021038
      2 C2           -6.519     11.817    -10.726 ab            1 LIG       -0.244819
      3 C3           -7.692     10.575    -13.008 ad            1 LIG       -0.200664
      4 C4           -6.948     11.765    -13.116 ae            1 LIG       -0.184324
      5 C5           -7.813     10.008    -11.749 af            1 LIG        0.072127
      6 C6           -7.240     10.616    -10.595 ah            1 LIG        0.062547
      7 C7           -7.609      9.743     -9.511 ai            1 LIG        0.101611
      8 N1           -8.276      8.729     -9.965 aj            1 LIG       -0.414211
      9 N2           -8.419      8.876    -11.288 ak            1 LIG       -0.018031
     10 C8           -7.333      9.899     -8.018 an            1 LIG        0.030517
     11 S1           -5.406     13.806    -12.201 ao            1 LIG        1.076665
     12 C9           -5.976     10.486     -7.725 ap            1 LIG        0.085081
     13 C10          -5.869     11.752     -7.152 aq            1 LIG       -0.197388
     14 C11          -4.612     12.300     -6.895 av            1 LIG       -0.196868
     15 C12          -3.442     11.584     -7.201 aw            1 LIG        0.103752
     16 C13          -3.568     10.318     -7.764 ax            1 LIG       -0.196868
     17 C14          -4.821      9.763     -8.031 ay            1 LIG       -0.197388
     18 C15          -2.103     12.158     -6.933 az            1 LIG        0.027771
     19 C16          -1.760     13.425     -6.423 bb            1 LIG       -0.195052
     20 N3           -0.426     13.453     -6.393 bc            1 LIG        0.224237
     21 N4            0.159     12.344     -6.793 bd            1 LIG       -0.431156
     22 C17          -0.821     11.551     -7.138 bf            1 LIG       -0.025678
     23 C18           0.419     14.582     -5.970 bg            1 LIG       -0.204190
     24 O1           -4.460     13.417    -13.228 bh            1 LIG       -0.556098
     25 O2           -6.336     14.902    -12.429 bj            1 LIG       -0.556098
     26 N5           -4.550     14.120    -10.691 bk            1 LIG       -0.629913
     27 C19          -3.300     13.442    -10.369 bl            1 LIG        0.011876
     28 C20          -2.072     13.993    -11.075 bm            1 LIG       -0.212578
     29 C21          -2.263     14.244     -9.609 bn            1 LIG       -0.212578
     30 H1           -6.096     12.284     -9.843 bo            1 LIG        0.163881
     31 H2           -8.138     10.117    -13.902 bp            1 LIG        0.157397
     32 H3           -6.822     12.201    -14.064 bq            1 LIG        0.176858
     33 H4           -8.954      8.205    -11.839 bs            1 LIG        0.292020
     34 H5           -8.103     10.522     -7.559 bt            1 LIG        0.046080
     35 H6           -7.419      8.916     -7.510 bu            1 LIG        0.046080
     36 H7           -6.759     12.324     -6.916 bv            1 LIG        0.138523
     37 H8           -4.545     13.302     -6.461 bw            1 LIG        0.142060
     38 H9           -2.674      9.749     -8.004 bx            1 LIG        0.142060
     39 H10          -4.888      8.783     -8.465 by            1 LIG        0.138523
     40 H11          -2.365     14.244     -6.100 bz            1 LIG        0.147469
     41 H12          -0.624     10.591     -7.550 cb            1 LIG        0.175278
     42 H13           1.044     14.839     -6.819 ci            1 LIG        0.104628
     43 H14           1.023     14.296     -5.136 cj            1 LIG        0.104628
     44 H15          -0.212     15.435     -5.729 ck            1 LIG        0.104628
     45 H16          -4.849     14.901    -10.120 cm            1 LIG        0.377200
     46 H17          -3.380     12.353    -10.183 cn            1 LIG        0.093932
     47 H18          -1.287     13.300    -11.374 ct            1 LIG        0.126358
     48 H19          -2.193     14.822    -11.760 cw            1 LIG        0.126358
     49 H20          -2.581     15.212     -9.243 da            1 LIG        0.126358
     50 H21          -1.551     13.743     -8.937 db            1 LIG        0.126358
@<TRIPOS>BOND
        1  1  2  2
        2  1  4  1
        3  1  11  1
        4  2  6  1
        5  2  30  1
        6  3  4  2
        7  3  5  1
        8  3  31  1
        9  4  32  1
        10  5  6  2
        11  5  9  1
        12  6  7  1
        13  7  8  2
        14  7  10  1
        15  8  9  1
        16  9  33  1
        17  10  12  1
        18  10  34  1
        19  10  35  1
        20  11  24  2
        21  11  25  2
        22  11  26  1
        23  12  13  2
        24  12  17  1
        25  13  14  1
        26  13  36  1
        27  14  15  2
        28  14  37  1
        29  15  16  1
        30  15  18  1
        31  16  17  2
        32  16  38  1
        33  17  39  1
        34  18  19  2
        35  18  22  1
        36  19  20  1
        37  19  40  1
        38  20  21  1
        39  20  23  1
        40  21  22  2
        41  22  41  1
        42  23  42  1
        43  23  43  1
        44  23  44  1
        45  26  27  1
        46  26  45  1
        47  27  28  1
        48  27  29  1
        49  27  46  1
        50  28  29  1
        51  28  47  1
        52  28  48  1
        53  29  49  1
        54  29  50  1
@<TRIPOS>SUBSTRUCTURE
       1 LIG             1 RESIDUE    0 **** ROOT      0
