@<TRIPOS>MOLECULE
LIG
31 32
SMALL
USER_CHARGES
@<TRIPOS>ATOM
      1 Cl1          27.549      0.314    -11.539 aa            1 LIG       -0.037456
      2 C1           24.837     -0.029    -11.498 ab            1 LIG        0.062577
      3 C2           26.045     -0.201    -10.810 ad            1 LIG        0.069721
      4 C3           26.034     -0.772     -9.525 ae            1 LIG       -0.024608
      5 C4           24.813     -1.081     -8.924 af            1 LIG       -0.172694
      6 C5           23.619     -0.928     -9.619 ah            1 LIG       -0.199577
      7 C6           23.622     -0.432    -10.925 ai            1 LIG        0.236072
      8 O1           22.481     -0.304    -11.689 aj            1 LIG       -0.302369
      9 C7           21.240     -0.589    -11.170 ak            1 LIG        0.276472
     10 C8           20.666     -1.837    -11.390 an            1 LIG       -0.265126
     11 C9           19.409     -2.117    -10.868 ao            1 LIG        0.232114
     12 F1           18.839     -3.324    -11.068 ap            1 LIG       -0.149842
     13 C10          18.726     -1.151    -10.139 aq            1 LIG       -0.251820
     14 C11          19.282      0.124     -9.958 av            1 LIG        0.193722
     15 C12          18.561      1.169     -9.249 aw            1 LIG        0.222367
     16 C13          20.550      0.380    -10.446 ax            1 LIG       -0.258372
     17 S1           27.517     -1.097     -8.569 ay            1 LIG        0.868493
     18 O2           27.176     -2.025     -7.488 az            1 LIG       -0.505661
     19 O3           28.597     -1.463     -9.488 bb            1 LIG       -0.505661
     20 C14          27.890      0.601     -7.852 bc            1 LIG        0.274786
     21 F2           27.735      1.523     -8.803 bd            1 LIG       -0.176909
     22 F3           27.012      0.794     -6.883 bf            1 LIG       -0.176909
     23 C15          24.833      0.608    -12.813 bg            1 LIG        0.231878
     24 N1           24.842      1.118    -13.852 bh            1 LIG       -0.355624
     25 N2           18.008      2.007     -8.671 bj            1 LIG       -0.364090
     26 H1           24.784     -1.473     -7.918 bk            1 LIG        0.210975
     27 H2           22.698     -1.228     -9.137 bl            1 LIG        0.202438
     28 H3           21.199     -2.596    -11.943 bm            1 LIG        0.196331
     29 H4           17.786     -1.432     -9.699 bn            1 LIG        0.187080
     30 H5           21.008      1.344    -10.273 bo            1 LIG        0.158386
     31 H6           28.887      0.640     -7.416 bp            1 LIG        0.123308
@<TRIPOS>BOND
        1  1  3  1
        2  2  3  2
        3  2  7  1
        4  2  23  1
        5  3  4  1
        6  4  5  2
        7  4  17  1
        8  5  6  1
        9  5  26  1
        10  6  7  2
        11  6  27  1
        12  7  8  1
        13  8  9  1
        14  9  10  2
        15  9  16  1
        16  10  11  1
        17  10  28  1
        18  11  12  1
        19  11  13  2
        20  13  14  1
        21  13  29  1
        22  14  15  1
        23  14  16  2
        24  15  25  3
        25  16  30  1
        26  17  18  2
        27  17  19  2
        28  17  20  1
        29  20  21  1
        30  20  22  1
        31  20  31  1
        32  23  24  3
@<TRIPOS>SUBSTRUCTURE
       1 LIG             1 RESIDUE    0 **** ROOT      0
