@<TRIPOS>MOLECULE
LIG
38 40
SMALL
USER_CHARGES
@<TRIPOS>ATOM
      1 O1           27.549      1.566    -11.207 aa            1 LIG       -0.708937
      2 C1           27.139      0.313    -11.676 ab            1 LIG        0.219284
      3 C2           26.520      0.386    -13.074 ad            1 LIG       -0.037656
      4 C3           25.030      0.604    -12.841 ae            1 LIG        0.006407
      5 C4           24.806     -0.072    -11.502 af            1 LIG       -0.025617
      6 C5           26.016     -0.228    -10.817 ah            1 LIG       -0.027550
      7 C6           26.025     -0.765     -9.519 ai            1 LIG       -0.017973
      8 C7           24.807     -1.088     -8.911 aj            1 LIG       -0.193365
      9 C8           23.613     -0.939     -9.596 ak            1 LIG       -0.199246
     10 C9           23.609     -0.433    -10.906 an            1 LIG        0.213412
     11 O2           22.488     -0.279    -11.686 ao            1 LIG       -0.316492
     12 C10          21.249     -0.570    -11.181 ap            1 LIG        0.278588
     13 C11          20.677     -1.826    -11.399 aq            1 LIG       -0.270518
     14 C12          19.418     -2.108    -10.873 av            1 LIG        0.227775
     15 C13          18.729     -1.153    -10.142 aw            1 LIG       -0.257599
     16 C14          19.302      0.133     -9.954 ax            1 LIG        0.188657
     17 C15          18.571      1.163     -9.238 ay            1 LIG        0.220234
     18 C16          20.553      0.388    -10.446 az            1 LIG       -0.264105
     19 S1           27.535     -1.054     -8.589 bb            1 LIG        0.882583
     20 O3           27.224     -2.010     -7.518 bc            1 LIG       -0.533734
     21 O4           28.588     -1.395     -9.547 bd            1 LIG       -0.533734
     22 C17          27.968      0.608     -7.812 bf            1 LIG        0.277123
     23 F1           27.892      1.537     -8.762 bg            1 LIG       -0.175182
     24 F2           27.109      0.849     -6.824 bh            1 LIG       -0.175182
     25 N1           18.010      1.998     -8.664 bj            1 LIG       -0.370814
     26 F3           18.861     -3.325    -11.068 bk            1 LIG       -0.156216
     27 H1           28.328      1.844    -11.715 bl            1 LIG        0.490564
     28 H2           27.983     -0.365    -11.708 bm            1 LIG        0.049214
     29 H3           26.949      1.201    -13.659 bn            1 LIG        0.048605
     30 H4           26.702     -0.536    -13.645 bo            1 LIG        0.048605
     31 H5           24.437      0.159    -13.643 bp            1 LIG        0.045287
     32 H6           24.783      1.665    -12.780 bq            1 LIG        0.045287
     33 H7           24.787     -1.466     -7.896 bs            1 LIG        0.180053
     34 H8           22.684     -1.211     -9.105 bt            1 LIG        0.184669
     35 H9           21.212     -2.586    -11.951 bu            1 LIG        0.192230
     36 H10          17.786     -1.411     -9.704 bv            1 LIG        0.180476
     37 H11          21.028      1.363    -10.265 bw            1 LIG        0.160373
     38 H12          28.982      0.550     -7.439 bx            1 LIG        0.124492
@<TRIPOS>BOND
        1  1  2  1
        2  1  27  1
        3  2  3  1
        4  2  6  1
        5  2  28  1
        6  3  4  1
        7  3  29  1
        8  3  30  1
        9  4  5  1
        10  4  31  1
        11  4  32  1
        12  5  6  2
        13  5  10  1
        14  6  7  1
        15  7  8  2
        16  7  19  1
        17  8  9  1
        18  8  33  1
        19  9  10  2
        20  9  34  1
        21  10  11  1
        22  11  12  1
        23  12  13  2
        24  12  18  1
        25  13  14  1
        26  13  35  1
        27  14  15  2
        28  14  26  1
        29  15  16  1
        30  15  36  1
        31  16  17  1
        32  16  18  2
        33  17  25  3
        34  18  37  1
        35  19  20  2
        36  19  21  2
        37  19  22  1
        38  22  23  1
        39  22  24  1
        40  22  38  1
@<TRIPOS>SUBSTRUCTURE
       1 LIG             1 RESIDUE    0 **** ROOT      0
