@<TRIPOS>MOLECULE
LIG
71 75
SMALL
USER_CHARGES
@<TRIPOS>ATOM
      1 C1           20.406     -3.766      7.925 aa            1 LIG       -0.250369
      2 C2           18.912     -3.993      7.777 ab            1 LIG        0.162263
      3 C3           18.026     -2.925      7.903 ad            1 LIG       -0.193321
      4 C4           16.658     -3.132      7.748 ae            1 LIG       -0.192004
      5 C5           16.165     -4.408      7.445 af            1 LIG       -0.003092
      6 C6           14.688     -4.664      7.233 ah            1 LIG        0.642793
      7 O1           14.194     -5.663      7.763 ai            1 LIG       -0.566102
      8 N1           13.949     -3.824      6.446 aj            1 LIG       -0.332758
      9 C7           12.479     -4.024      6.401 ak            1 LIG       -0.009899
     10 C8           11.602     -2.822      6.004 an            1 LIG        0.418121
     11 N2           11.332     -2.883      4.493 ao            1 LIG       -0.668418
     12 C9           14.561     -2.998      5.380 ap            1 LIG       -0.014409
     13 C10          14.796     -3.669      4.000 aq            1 LIG        0.252048
     14 C11          15.081     -5.193      4.031 av            1 LIG       -0.064816
     15 C12          15.240     -5.775      2.617 aw            1 LIG       -0.059977
     16 C13          14.108     -5.326      1.663 ax            1 LIG        0.044845
     17 C14          12.741     -6.032      1.902 ay            1 LIG        0.120398
     18 C15          12.842     -7.557      1.851 az            1 LIG        0.072634
     19 C16          12.453     -8.323      2.953 bb            1 LIG       -0.194928
     20 C17          12.525     -9.713      2.893 bc            1 LIG       -0.135291
     21 C18          12.948    -10.338      1.727 bd            1 LIG       -0.135487
     22 C19          13.335     -9.581      0.625 bf            1 LIG       -0.135291
     23 C20          13.311     -8.193      0.698 bg            1 LIG       -0.194928
     24 N3           11.732     -5.527      0.966 bh            1 LIG       -0.553016
     25 C21          11.737     -4.181      0.558 bj            1 LIG        0.236126
     26 C22          10.689     -3.724     -0.242 bk            1 LIG       -0.213891
     27 C23          10.669     -2.406     -0.688 bl            1 LIG       -0.182300
     28 C24          11.691     -1.526     -0.322 bm            1 LIG       -0.086920
     29 C25          11.712     -0.098     -0.857 bn            1 LIG        0.690802
     30 F1           12.291      0.736      0.008 bo            1 LIG       -0.230171
     31 F2           12.410     -0.077     -1.992 bp            1 LIG       -0.230171
     32 F3           10.477      0.333     -1.105 bq            1 LIG       -0.230171
     33 C26          12.718     -1.979      0.507 bs            1 LIG       -0.239439
     34 C27          12.777     -3.308      0.932 bt            1 LIG       -0.021152
     35 C28          13.948     -3.791      1.772 bu            1 LIG        0.277751
     36 O2           13.697     -3.401      3.127 bv            1 LIG       -0.498818
     37 C29          17.061     -5.484      7.377 bw            1 LIG       -0.192004
     38 C30          18.427     -5.280      7.533 bx            1 LIG       -0.193321
     39 H1           20.897     -4.638      8.353 by            1 LIG        0.094332
     40 H2           20.616     -2.927      8.594 bz            1 LIG        0.094332
     41 H3           20.854     -3.555      6.954 cb            1 LIG        0.094332
     42 H4           18.389     -1.929      8.114 ci            1 LIG        0.156637
     43 H5           15.989     -2.292      7.854 cj            1 LIG        0.149045
     44 H6           12.266     -4.865      5.737 ck            1 LIG        0.091489
     45 H7           12.147     -4.346      7.389 cm            1 LIG        0.091489
     46 H8           10.603     -2.877      6.448 cn            1 LIG       -0.011592
     47 H9           12.043     -1.846      6.221 ct            1 LIG       -0.011592
     48 H10          10.730     -2.132      4.141 cw            1 LIG        0.388792
     49 H11          10.855     -3.753      4.287 da            1 LIG        0.388792
     50 H12          13.981     -2.092      5.232 db            1 LIG        0.060089
     51 H13          15.530     -2.626      5.694 dc            1 LIG        0.060089
     52 H14          15.670     -3.156      3.593 dd            1 LIG        0.012288
     53 H15          15.991     -5.390      4.600 de            1 LIG        0.028374
     54 H16          14.278     -5.719      4.552 df            1 LIG        0.028374
     55 H17          16.196     -5.443      2.207 dg            1 LIG        0.032607
     56 H18          15.312     -6.862      2.671 dh            1 LIG        0.032607
     57 H19          14.438     -5.543      0.645 di            1 LIG        0.013026
     58 H20          12.382     -5.772      2.902 dj            1 LIG        0.049445
     59 H21          12.096     -7.849      3.857 dk            1 LIG        0.139482
     60 H22          12.229    -10.308      3.746 dl            1 LIG        0.147071
     61 H23          12.979    -11.418      1.676 dm            1 LIG        0.147639
     62 H24          13.672    -10.059     -0.282 dn            1 LIG        0.147071
     63 H25          13.614     -7.614     -0.161 do            1 LIG        0.139482
     64 H26          10.878     -6.066      0.948 dp            1 LIG        0.336295
     65 H27           9.898     -4.396     -0.535 dq            1 LIG        0.156091
     66 H28           9.863     -2.070     -1.322 dr            1 LIG        0.164517
     67 H29          13.514     -1.301      0.787 ds            1 LIG        0.174756
     68 H30          14.859     -3.310      1.405 dt            1 LIG        0.014856
     69 H31          16.701     -6.486      7.183 dv            1 LIG        0.149045
     70 H32          19.105     -6.120      7.460 dw            1 LIG        0.156637
     71 H33          12.195     -2.887      3.954 dx            1 LIG        0.388792
@<TRIPOS>BOND
        1  1  2  1
        2  1  39  1
        3  1  40  1
        4  1  41  1
        5  2  3  2
        6  2  38  1
        7  3  4  1
        8  3  42  1
        9  4  5  2
        10  4  43  1
        11  5  6  1
        12  5  37  1
        13  6  7  2
        14  6  8  1
        15  8  9  1
        16  8  12  1
        17  9  10  1
        18  9  44  1
        19  9  45  1
        20  10  11  1
        21  10  46  1
        22  10  47  1
        23  11  48  1
        24  11  49  1
        25  11  71  1
        26  12  13  1
        27  12  50  1
        28  12  51  1
        29  13  14  1
        30  13  36  1
        31  13  52  1
        32  14  15  1
        33  14  53  1
        34  14  54  1
        35  15  16  1
        36  15  55  1
        37  15  56  1
        38  16  17  1
        39  16  35  1
        40  16  57  1
        41  17  18  1
        42  17  24  1
        43  17  58  1
        44  18  19  2
        45  18  23  1
        46  19  20  1
        47  19  59  1
        48  20  21  2
        49  20  60  1
        50  21  22  1
        51  21  61  1
        52  22  23  2
        53  22  62  1
        54  23  63  1
        55  24  25  1
        56  24  64  1
        57  25  26  2
        58  25  34  1
        59  26  27  1
        60  26  65  1
        61  27  28  2
        62  27  66  1
        63  28  29  1
        64  28  33  1
        65  29  30  1
        66  29  31  1
        67  29  32  1
        68  33  34  2
        69  33  67  1
        70  34  35  1
        71  35  36  1
        72  35  68  1
        73  37  38  2
        74  37  69  1
        75  38  70  1
@<TRIPOS>SUBSTRUCTURE
       1 LIG             1 RESIDUE    0 **** ROOT      0
