@<TRIPOS>MOLECULE
LIG
48 52
SMALL
USER_CHARGES
@<TRIPOS>ATOM
      1 C1           -6.386     12.334    -12.043 aa            1 LIG        0.100969
      2 C2           -6.486     11.784    -10.770 ab            1 LIG       -0.257181
      3 C3           -7.747     10.564    -13.043 ad            1 LIG       -0.208430
      4 C4           -7.017     11.750    -13.146 ae            1 LIG       -0.188033
      5 C5           -7.830     10.008    -11.760 af            1 LIG        0.065826
      6 C6           -7.226     10.615    -10.616 ah            1 LIG        0.054038
      7 C7           -7.601      9.752     -9.514 ai            1 LIG        0.095230
      8 N1           -8.284      8.742     -9.983 aj            1 LIG       -0.432779
      9 N2           -8.432      8.873    -11.293 ak            1 LIG       -0.027605
     10 C8           -7.327      9.894     -8.023 an            1 LIG        0.033676
     11 C9           -5.559     13.528    -12.227 ao            1 LIG        0.208234
     12 C10          -5.962     10.491     -7.733 ap            1 LIG        0.094158
     13 C11          -5.858     11.764     -7.165 aq            1 LIG       -0.193089
     14 C12          -4.604     12.314     -6.919 av            1 LIG       -0.195047
     15 C13          -3.448     11.595     -7.236 aw            1 LIG        0.103316
     16 C14          -3.561     10.318     -7.796 ax            1 LIG       -0.195047
     17 C15          -4.811      9.768     -8.044 ay            1 LIG       -0.193089
     18 C16          -2.100     12.172     -6.978 az            1 LIG        0.034896
     19 C17          -1.749     13.428     -6.490 bb            1 LIG       -0.192589
     20 N3           -0.414     13.460     -6.433 bc            1 LIG        0.223382
     21 N4            0.174     12.366     -6.814 bd            1 LIG       -0.443398
     22 C18          -0.809     11.563     -7.180 bf            1 LIG       -0.016810
     23 C19           0.418     14.573     -6.000 bg            1 LIG       -0.204088
     24 C20          -4.428     13.905    -11.513 bh            1 LIG       -0.198234
     25 N5           -4.009     15.029    -12.068 bj            1 LIG        0.040139
     26 C21          -4.845     15.345    -13.053 bk            1 LIG        0.041755
     27 N6           -5.782     14.446    -13.208 bl            1 LIG       -0.504560
     28 C22          -2.900     15.780    -11.643 bm            1 LIG       -0.188096
     29 H1           -6.003     12.257     -9.930 bn            1 LIG        0.141395
     30 H2           -8.209     10.109    -13.904 bo            1 LIG        0.133780
     31 H3           -6.911     12.213    -14.120 bp            1 LIG        0.162415
     32 H4           -8.950      8.181    -11.816 bq            1 LIG        0.278743
     33 H5           -7.415      8.930     -7.515 bs            1 LIG        0.037645
     34 H6           -8.090     10.535     -7.577 bt            1 LIG        0.037645
     35 H7           -6.749     12.322     -6.924 bu            1 LIG        0.138563
     36 H8           -4.524     13.298     -6.481 bv            1 LIG        0.134773
     37 H9           -2.670      9.753     -8.040 bw            1 LIG        0.134773
     38 H10          -4.894      8.784     -8.482 bx            1 LIG        0.138563
     39 H11          -2.337     14.277     -6.192 by            1 LIG        0.151267
     40 H12          -0.618     10.567     -7.561 bz            1 LIG        0.143569
     41 H13           1.079     14.864     -6.820 cb            1 LIG        0.105200
     42 H14           1.026     14.259     -5.150 ci            1 LIG        0.105200
     43 H15          -0.197     15.424     -5.716 cj            1 LIG        0.105200
     44 H16          -3.895     13.466    -10.671 ck            1 LIG        0.145968
     45 H17          -4.695     16.266    -13.620 cm            1 LIG        0.154570
     46 H18          -3.268     16.392    -10.846 cn            1 LIG        0.097728
     47 H19          -2.607     16.448    -12.404 ct            1 LIG        0.097728
     48 H20          -2.036     15.157    -11.369 cw            1 LIG        0.097728
@<TRIPOS>BOND
        1  1  2  2
        2  1  4  1
        3  1  11  1
        4  2  6  1
        5  2  29  1
        6  3  4  2
        7  3  5  1
        8  3  30  1
        9  4  31  1
        10  5  6  2
        11  5  9  1
        12  6  7  1
        13  7  8  2
        14  7  10  1
        15  8  9  1
        16  9  32  1
        17  10  12  1
        18  10  33  1
        19  10  34  1
        20  11  24  2
        21  11  27  1
        22  12  13  2
        23  12  17  1
        24  13  14  1
        25  13  35  1
        26  14  15  2
        27  14  36  1
        28  15  16  1
        29  15  18  1
        30  16  17  2
        31  16  37  1
        32  17  38  1
        33  18  19  2
        34  18  22  1
        35  19  20  1
        36  19  39  1
        37  20  21  1
        38  20  23  1
        39  21  22  2
        40  22  40  1
        41  23  41  1
        42  23  42  1
        43  23  43  1
        44  24  25  1
        45  24  44  1
        46  25  26  1
        47  25  28  1
        48  26  27  2
        49  26  45  1
        50  28  46  1
        51  28  47  1
        52  28  48  1
@<TRIPOS>SUBSTRUCTURE
       1 LIG             1 RESIDUE    0 **** ROOT      0
