@<TRIPOS>MOLECULE
LIG
38 40
SMALL
USER_CHARGES
@<TRIPOS>ATOM
      1 O1           27.617      1.548    -11.138 aa            1 LIG       -0.690442
      2 C1           27.158      0.302    -11.655 ab            1 LIG        0.205862
      3 C2           26.523      0.379    -13.051 ad            1 LIG        0.288127
      4 C3           25.032      0.585    -12.845 ae            1 LIG       -0.016335
      5 C4           24.810     -0.082    -11.501 af            1 LIG       -0.034653
      6 C5           26.023     -0.246    -10.811 ah            1 LIG       -0.023665
      7 C6           26.023     -0.779     -9.506 ai            1 LIG       -0.000544
      8 C7           24.804     -1.088     -8.901 aj            1 LIG       -0.182978
      9 C8           23.609     -0.919     -9.583 ak            1 LIG       -0.206881
     10 C9           23.605     -0.427    -10.897 an            1 LIG        0.220549
     11 O2           22.493     -0.259    -11.681 ao            1 LIG       -0.305670
     12 C10          21.259     -0.543    -11.187 ap            1 LIG        0.274743
     13 C11          20.689     -1.797    -11.399 aq            1 LIG       -0.259620
     14 C12          19.429     -2.066    -10.866 av            1 LIG        0.171590
     15 C13          18.747     -1.109    -10.129 aw            1 LIG       -0.245896
     16 C14          19.304      0.167     -9.955 ax            1 LIG        0.191568
     17 C15          18.575      1.195     -9.246 ay            1 LIG        0.220818
     18 C16          20.561      0.418    -10.459 az            1 LIG       -0.258330
     19 S1           27.535     -1.064     -8.583 bb            1 LIG        0.891249
     20 O3           27.223     -2.014     -7.494 bc            1 LIG       -0.536754
     21 O4           28.591     -1.399     -9.518 bd            1 LIG       -0.536754
     22 C17          27.941      0.614     -7.830 bf            1 LIG        0.055089
     23 F1           27.118      0.844     -6.809 bg            1 LIG       -0.212637
     24 N1           18.015      2.019     -8.672 bh            1 LIG       -0.366564
     25 Cl1          18.683     -3.587    -11.112 bj            1 LIG       -0.107222
     26 F2           27.064      1.315    -13.824 bk            1 LIG       -0.203181
     27 F3           26.673     -0.800    -13.656 bl            1 LIG       -0.203181
     28 H1           28.362      1.868    -11.671 bm            1 LIG        0.500692
     29 H2           27.983     -0.409    -11.719 bn            1 LIG        0.083572
     30 H3           24.421      0.192    -13.662 bo            1 LIG        0.074299
     31 H4           24.799      1.647    -12.768 bp            1 LIG        0.074299
     32 H5           24.779     -1.488     -7.898 bq            1 LIG        0.192881
     33 H6           22.695     -1.225     -9.099 bs            1 LIG        0.177020
     34 H7           21.214     -2.572    -11.937 bt            1 LIG        0.191614
     35 H8           17.815     -1.399     -9.694 bu            1 LIG        0.182138
     36 H9           21.017      1.373    -10.268 bv            1 LIG        0.169993
     37 H10          28.971      0.575     -7.473 bw            1 LIG        0.112601
     38 H11          27.836      1.393     -8.588 bx            1 LIG        0.112601
@<TRIPOS>BOND
        1  1  2  1
        2  1  28  1
        3  2  3  1
        4  2  6  1
        5  2  29  1
        6  3  4  1
        7  3  26  1
        8  3  27  1
        9  4  5  1
        10  4  30  1
        11  4  31  1
        12  5  6  2
        13  5  10  1
        14  6  7  1
        15  7  8  2
        16  7  19  1
        17  8  9  1
        18  8  32  1
        19  9  10  2
        20  9  33  1
        21  10  11  1
        22  11  12  1
        23  12  13  2
        24  12  18  1
        25  13  14  1
        26  13  34  1
        27  14  15  2
        28  14  25  1
        29  15  16  1
        30  15  35  1
        31  16  17  1
        32  16  18  2
        33  17  24  3
        34  18  36  1
        35  19  20  2
        36  19  21  2
        37  19  22  1
        38  22  23  1
        39  22  37  1
        40  22  38  1
@<TRIPOS>SUBSTRUCTURE
       1 LIG             1 RESIDUE    0 **** ROOT      0
