@<TRIPOS>MOLECULE
LIG
48 52
SMALL
USER_CHARGES
@<TRIPOS>ATOM
      1 C1           -4.257     -3.104     13.569 aa            1 LIG        0.066005
      2 O1           -3.874     -2.360     14.716 ab            1 LIG       -0.354953
      3 C2           -2.526     -2.111     14.817 ad            1 LIG        0.190091
      4 C3           -1.746     -2.870     15.682 ae            1 LIG       -0.222744
      5 C4           -0.390     -2.610     15.814 af            1 LIG       -0.224380
      6 C5            0.220     -1.585     15.086 ah            1 LIG        0.272853
      7 N1            1.604     -1.360     15.320 ai            1 LIG       -0.568671
      8 C6            2.538     -0.446     14.759 aj            1 LIG        0.445292
      9 N2            2.184      0.371     13.722 ak            1 LIG       -0.556100
     10 C7            3.117      1.239     13.217 an            1 LIG        0.211918
     11 C8            4.420      1.285     13.704 ao            1 LIG       -0.119941
     12 N3            4.747      0.489     14.761 ap            1 LIG        0.062520
     13 C9            5.898      0.376     15.487 aq            1 LIG       -0.164648
     14 C10           5.586     -0.522     16.530 av            1 LIG        0.030192
     15 N4            4.375     -1.042     16.374 aw            1 LIG       -0.518622
     16 C11           3.837     -0.392     15.326 ax            1 LIG        0.171766
     17 C12           2.644      2.163     12.117 ay            1 LIG        0.099705
     18 C13           3.548      2.641     11.160 az            1 LIG       -0.193122
     19 C14           3.157      3.468     10.098 bb            1 LIG       -0.208510
     20 C15           1.809      3.808     10.026 bc            1 LIG        0.071676
     21 N5            1.113      4.568      9.116 bd            1 LIG       -0.186653
     22 C16          -0.196      4.637      9.444 bf            1 LIG       -0.129410
     23 C17          -0.423      3.925     10.608 bg            1 LIG       -0.217412
     24 C18           0.858      3.361     11.005 bh            1 LIG        0.072302
     25 C19           1.292      2.545     12.056 bj            1 LIG       -0.251361
     26 C20          -0.555     -0.819     14.192 bk            1 LIG       -0.299859
     27 C21          -1.945     -1.089     14.062 bl            1 LIG        0.201674
     28 O2           -2.754     -0.357     13.205 bm            1 LIG       -0.349220
     29 C22          -2.234      0.644     12.352 bn            1 LIG        0.061424
     30 H1           -5.336     -3.252     13.587 bo            1 LIG        0.054193
     31 H2           -3.789     -4.090     13.559 bp            1 LIG        0.054193
     32 H3           -4.013     -2.580     12.644 bq            1 LIG        0.054193
     33 H4           -2.192     -3.663     16.263 bs            1 LIG        0.153624
     34 H5            0.199     -3.208     16.498 bt            1 LIG        0.143263
     35 H6            1.990     -1.933     16.052 bu            1 LIG        0.362930
     36 H7            5.182      1.964     13.344 bv            1 LIG        0.119871
     37 H8            6.786      0.946     15.276 bw            1 LIG        0.146785
     38 H9            6.227     -0.789     17.353 bx            1 LIG        0.145953
     39 H10           4.588      2.344     11.226 by            1 LIG        0.153144
     40 H11           3.857      3.812      9.374 bz            1 LIG        0.135523
     41 H12           1.489      5.031      8.296 cb            1 LIG        0.281906
     42 H13          -0.881      5.205      8.810 ci            1 LIG        0.148689
     43 H14          -1.369      3.809     11.111 cj            1 LIG        0.145092
     44 H15           0.601      2.218     12.804 ck            1 LIG        0.138292
     45 H16          -0.108     -0.034     13.626 cm            1 LIG        0.197361
     46 H17          -3.051      1.073     11.770 cn            1 LIG        0.057726
     47 H18          -1.511      0.234     11.650 ct            1 LIG        0.057726
     48 H19          -1.782      1.450     12.928 cw            1 LIG        0.057726
@<TRIPOS>BOND
        1  1  2  1
        2  1  30  1
        3  1  31  1
        4  1  32  1
        5  2  3  1
        6  3  4  2
        7  3  27  1
        8  4  5  1
        9  4  33  1
        10  5  6  2
        11  5  34  1
        12  6  7  1
        13  6  26  1
        14  7  8  1
        15  7  35  1
        16  8  9  2
        17  8  16  1
        18  9  10  1
        19  10  11  2
        20  10  17  1
        21  11  12  1
        22  11  36  1
        23  12  13  1
        24  12  16  1
        25  13  14  2
        26  13  37  1
        27  14  15  1
        28  14  38  1
        29  15  16  2
        30  17  18  2
        31  17  25  1
        32  18  19  1
        33  18  39  1
        34  19  20  2
        35  19  40  1
        36  20  21  1
        37  20  24  1
        38  21  22  1
        39  21  41  1
        40  22  23  2
        41  22  42  1
        42  23  24  1
        43  23  43  1
        44  24  25  2
        45  25  44  1
        46  26  27  2
        47  26  45  1
        48  27  28  1
        49  28  29  1
        50  29  46  1
        51  29  47  1
        52  29  48  1
@<TRIPOS>SUBSTRUCTURE
       1 LIG             1 RESIDUE    0 **** ROOT      0
