@<TRIPOS>MOLECULE
LIG
44 46
SMALL
USER_CHARGES
@<TRIPOS>ATOM
      1 C1          -15.197    -19.259    -25.960 aa            1 LIG        0.099749
      2 C2          -15.462    -20.087    -24.863 ab            1 LIG       -0.185641
      3 C3          -14.732    -19.846    -27.147 ad            1 LIG       -0.185641
      4 C4          -15.373    -17.788    -25.885 ae            1 LIG        0.333386
      5 C5          -15.236    -21.458    -24.946 af            1 LIG       -0.187440
      6 C6          -14.519    -21.218    -27.232 ah            1 LIG       -0.187440
      7 C7          -14.764    -22.044    -26.132 ai            1 LIG        0.058258
      8 N1          -16.123    -17.231    -24.860 aj            1 LIG       -0.408898
      9 C8          -16.392    -15.919    -24.610 ak            1 LIG        0.631602
     10 N2          -14.866    -16.984    -26.761 an            1 LIG       -0.494025
     11 C9          -15.023    -15.593    -26.680 ao            1 LIG        0.232664
     12 C10         -15.749    -15.006    -25.635 ap            1 LIG       -0.053614
     13 C11         -15.867    -13.615    -25.552 aq            1 LIG       -0.247379
     14 C12         -15.256    -12.820    -26.526 av            1 LIG        0.218287
     15 C13         -14.550    -13.408    -27.578 aw            1 LIG       -0.199827
     16 C14         -14.435    -14.796    -27.662 ax            1 LIG       -0.196417
     17 O1          -17.098    -15.561    -23.665 ay            1 LIG       -0.626983
     18 C15         -14.478    -23.565    -26.189 az            1 LIG        0.455368
     19 C16         -15.715    -24.318    -25.660 bb            1 LIG       -0.306609
     20 C17         -13.218    -23.836    -25.347 bc            1 LIG       -0.306609
     21 O2          -14.152    -23.946    -27.543 bd            1 LIG       -0.498437
     22 F1          -15.350    -11.473    -26.463 bf            1 LIG       -0.168096
     23 C18         -14.550    -25.200    -28.125 bg            1 LIG        0.198816
     24 C19         -13.910    -26.487    -27.545 bh            1 LIG        0.223187
     25 O3          -12.597    -26.751    -28.003 bj            1 LIG       -0.723320
     26 H1          -15.820    -19.685    -23.925 bk            1 LIG        0.158206
     27 H2          -14.523    -19.241    -28.019 bl            1 LIG        0.158206
     28 H3          -15.418    -22.061    -24.068 bm            1 LIG        0.162212
     29 H4          -14.139    -21.626    -28.155 bn            1 LIG        0.162212
     30 H5          -16.613    -17.863    -24.241 bo            1 LIG        0.326548
     31 H6          -16.418    -13.152    -24.745 bp            1 LIG        0.191530
     32 H7          -14.084    -12.785    -28.327 bq            1 LIG        0.172550
     33 H8          -13.882    -15.250    -28.471 bs            1 LIG        0.174228
     34 H9          -15.812    -24.176    -24.586 bt            1 LIG        0.080935
     35 H10         -15.747    -25.389    -25.832 bu            1 LIG        0.080935
     36 H11         -16.577    -23.917    -26.175 bv            1 LIG        0.080935
     37 H12         -13.439    -23.942    -24.286 bw            1 LIG        0.080935
     38 H13         -12.551    -22.986    -25.430 bx            1 LIG        0.080935
     39 H14         -12.659    -24.712    -25.669 by            1 LIG        0.080935
     40 H15         -14.341    -25.154    -29.193 bz            1 LIG        0.018068
     41 H16         -15.635    -25.275    -28.062 cb            1 LIG        0.018068
     42 H17         -14.523    -27.349    -27.813 ci            1 LIG        0.011922
     43 H18         -13.888    -26.454    -26.464 cj            1 LIG        0.011922
     44 H19         -12.645    -27.172    -28.867 ck            1 LIG        0.473775
@<TRIPOS>BOND
        1  1  2  2
        2  1  3  1
        3  1  4  1
        4  2  5  1
        5  2  26  1
        6  3  6  2
        7  3  27  1
        8  4  8  1
        9  4  10  2
        10  5  7  2
        11  5  28  1
        12  6  7  1
        13  6  29  1
        14  7  18  1
        15  8  9  1
        16  8  30  1
        17  9  12  1
        18  9  17  2
        19  10  11  1
        20  11  12  2
        21  11  16  1
        22  12  13  1
        23  13  14  2
        24  13  31  1
        25  14  15  1
        26  14  22  1
        27  15  16  2
        28  15  32  1
        29  16  33  1
        30  18  19  1
        31  18  20  1
        32  18  21  1
        33  19  34  1
        34  19  35  1
        35  19  36  1
        36  20  37  1
        37  20  38  1
        38  20  39  1
        39  21  23  1
        40  23  24  1
        41  23  40  1
        42  23  41  1
        43  24  25  1
        44  24  42  1
        45  24  43  1
        46  25  44  1
@<TRIPOS>SUBSTRUCTURE
       1 LIG             1 RESIDUE    0 **** ROOT      0
