@<TRIPOS>MOLECULE
LIG
36 38
SMALL
USER_CHARGES
@<TRIPOS>ATOM
      1 C1          -15.139    -19.188    -26.019 aa            1 LIG        0.357735
      2 N1          -15.501    -20.013    -24.947 ab            1 LIG       -0.538558
      3 C2          -14.553    -19.774    -27.152 ad            1 LIG       -0.227434
      4 C3          -15.350    -17.724    -25.954 ae            1 LIG        0.309399
      5 C4          -15.283    -21.382    -25.011 af            1 LIG        0.198338
      6 C5          -14.364    -21.151    -27.226 ah            1 LIG       -0.174831
      7 C6          -14.732    -21.976    -26.158 ai            1 LIG       -0.041641
      8 N2          -16.118    -17.184    -24.934 aj            1 LIG       -0.396998
      9 C7          -16.399    -15.880    -24.669 ak            1 LIG        0.631726
     10 N3          -14.846    -16.908    -26.822 an            1 LIG       -0.495384
     11 C8          -15.012    -15.520    -26.720 ao            1 LIG        0.233277
     12 C9          -15.752    -14.949    -25.675 ap            1 LIG       -0.051846
     13 C10         -15.874    -13.559    -25.576 aq            1 LIG       -0.246865
     14 C11         -15.254    -12.751    -26.535 av            1 LIG        0.219704
     15 C12         -14.530    -13.323    -27.582 aw            1 LIG       -0.199750
     16 C13         -14.410    -14.709    -27.680 ax            1 LIG       -0.195719
     17 O1          -17.116    -15.551    -23.722 ay            1 LIG       -0.620925
     18 C14         -14.485    -23.503    -26.209 az            1 LIG        0.477532
     19 O2          -14.241    -23.901    -27.575 bb            1 LIG       -0.728300
     20 F1          -15.350    -11.405    -26.463 bc            1 LIG       -0.165891
     21 C15         -15.696    -24.227    -25.581 bd            1 LIG       -0.307347
     22 C16         -13.178    -23.777    -25.457 bf            1 LIG       -0.307347
     23 H1          -14.254    -19.169    -27.997 bg            1 LIG        0.175641
     24 H2          -15.547    -21.966    -24.143 bh            1 LIG        0.083325
     25 H3          -13.913    -21.565    -28.116 bj            1 LIG        0.155516
     26 H4          -16.602    -17.825    -24.320 bk            1 LIG        0.347097
     27 H5          -16.433    -13.114    -24.765 bl            1 LIG        0.193609
     28 H6          -14.055    -12.688    -28.315 bm            1 LIG        0.173729
     29 H7          -13.844    -15.152    -28.486 bn            1 LIG        0.174409
     30 H8          -15.752    -24.031    -24.511 bo            1 LIG        0.083937
     31 H9          -15.751    -25.304    -25.675 bp            1 LIG        0.083937
     32 H10         -16.580    -23.843    -26.063 bq            1 LIG        0.083937
     33 H11         -13.291    -23.678    -24.376 bs            1 LIG        0.083937
     34 H12         -12.461    -23.027    -25.771 bt            1 LIG        0.083937
     35 H13         -12.739    -24.750    -25.679 bu            1 LIG        0.083937
     36 H14         -14.087    -24.848    -27.611 bv            1 LIG        0.464172
@<TRIPOS>BOND
        1  1  2  2
        2  1  3  1
        3  1  4  1
        4  2  5  1
        5  3  6  2
        6  3  23  1
        7  4  8  1
        8  4  10  2
        9  5  7  2
        10  5  24  1
        11  6  7  1
        12  6  25  1
        13  7  18  1
        14  8  9  1
        15  8  26  1
        16  9  12  1
        17  9  17  2
        18  10  11  1
        19  11  12  2
        20  11  16  1
        21  12  13  1
        22  13  14  2
        23  13  27  1
        24  14  15  1
        25  14  20  1
        26  15  16  2
        27  15  28  1
        28  16  29  1
        29  18  19  1
        30  18  21  1
        31  18  22  1
        32  19  36  1
        33  21  30  1
        34  21  31  1
        35  21  32  1
        36  22  33  1
        37  22  34  1
        38  22  35  1
@<TRIPOS>SUBSTRUCTURE
       1 LIG             1 RESIDUE    0 **** ROOT      0
