@<TRIPOS>MOLECULE
LIG
38 40
SMALL
USER_CHARGES
@<TRIPOS>ATOM
      1 O1           27.580      1.524    -11.185 aa            1 LIG       -0.685649
      2 C1           27.136      0.296    -11.677 ab            1 LIG        0.195365
      3 C2           26.518      0.405    -13.069 ad            1 LIG        0.170800
      4 C3           25.017      0.590    -12.841 ae            1 LIG       -0.015612
      5 C4           24.820     -0.070    -11.505 af            1 LIG       -0.036557
      6 C5           26.020     -0.231    -10.829 ah            1 LIG       -0.037510
      7 C6           26.008     -0.764     -9.508 ai            1 LIG       -0.015684
      8 C7           24.827     -1.088     -8.909 aj            1 LIG       -0.191948
      9 C8           23.599     -0.935     -9.604 ak            1 LIG       -0.208534
     10 C9           23.596     -0.451    -10.898 an            1 LIG        0.216168
     11 O2           22.484     -0.268    -11.680 ao            1 LIG       -0.302929
     12 C10          21.240     -0.561    -11.174 ap            1 LIG        0.273692
     13 C11          20.558      0.400    -10.445 aq            1 LIG       -0.283618
     14 C12          19.284      0.105     -9.938 av            1 LIG        0.227528
     15 F1           18.606      1.068     -9.250 aw            1 LIG       -0.150820
     16 C13          18.734     -1.135    -10.131 ax            1 LIG       -0.282252
     17 C14          19.423     -2.110    -10.880 ay            1 LIG        0.227528
     18 F2           18.853     -3.313    -11.076 az            1 LIG       -0.150820
     19 C15          20.670     -1.820    -11.397 bb            1 LIG       -0.283618
     20 S1           27.535     -1.065     -8.576 bc            1 LIG        0.867467
     21 O3           27.220     -2.018     -7.531 bd            1 LIG       -0.517286
     22 O4           28.596     -1.361     -9.528 bf            1 LIG       -0.517286
     23 C16          27.944      0.610     -7.772 bg            1 LIG        0.274214
     24 F3           27.826      1.566     -8.665 bh            1 LIG       -0.181642
     25 F4           27.097      0.794     -6.740 bj            1 LIG       -0.181642
     26 O5           27.079      1.373    -13.883 bk            1 LIG       -0.692254
     27 H1           28.420      1.776    -11.573 bl            1 LIG        0.472737
     28 H2           27.988     -0.385    -11.723 bm            1 LIG        0.099944
     29 H3           26.660     -0.570    -13.604 bn            1 LIG        0.076957
     30 H4           24.775      1.657    -12.773 bo            1 LIG        0.055152
     31 H5           24.446      0.163    -13.652 bp            1 LIG        0.055152
     32 H6           24.782     -1.471     -7.901 bq            1 LIG        0.184921
     33 H7           22.683     -1.221     -9.109 bs            1 LIG        0.173175
     34 H8           20.992      1.361    -10.284 bt            1 LIG        0.188710
     35 H9           17.788     -1.400     -9.697 bu            1 LIG        0.197397
     36 H10          21.208     -2.578    -11.953 bv            1 LIG        0.188710
     37 H11          28.965      0.572     -7.433 bw            1 LIG        0.120705
     38 H12          27.665      1.928    -13.347 bx            1 LIG        0.469340
@<TRIPOS>BOND
        1  1  2  1
        2  1  27  1
        3  2  3  1
        4  2  6  1
        5  2  28  1
        6  3  4  1
        7  3  26  1
        8  3  29  1
        9  4  5  1
        10  4  30  1
        11  4  31  1
        12  5  6  2
        13  5  10  1
        14  6  7  1
        15  7  8  2
        16  7  20  1
        17  8  9  1
        18  8  32  1
        19  9  10  2
        20  9  33  1
        21  10  11  1
        22  11  12  1
        23  12  13  2
        24  12  19  1
        25  13  14  1
        26  13  34  1
        27  14  15  1
        28  14  16  2
        29  16  17  1
        30  16  35  1
        31  17  18  1
        32  17  19  2
        33  19  36  1
        34  20  21  2
        35  20  22  2
        36  20  23  1
        37  23  24  1
        38  23  25  1
        39  23  37  1
        40  26  38  1
@<TRIPOS>SUBSTRUCTURE
       1 LIG             1 RESIDUE    0 **** ROOT      0
