@<TRIPOS>MOLECULE
LIG
43 46
SMALL
USER_CHARGES
@<TRIPOS>ATOM
      1 C1           93.288     49.798    267.671 aa            1 LIG       -0.001854
      2 C2           92.564     47.334    266.485 ab            1 LIG       -0.308920
      3 C3           91.608     48.329    266.673 ad            1 LIG        0.282300
      4 C4           91.971     49.530    267.274 ae            1 LIG       -0.241891
      5 C5           93.891     47.533    266.916 af            1 LIG        0.295301
      6 C6           94.273     48.776    267.508 ah            1 LIG        0.245653
      7 N1           95.559     48.964    267.935 ai            1 LIG       -0.483981
      8 C7           96.450     47.954    267.752 aj            1 LIG        0.167449
      9 C8           96.058     46.741    267.194 ak            1 LIG        0.173348
     10 N2           94.797     46.520    266.774 an            1 LIG       -0.487233
     11 C9           93.591     51.100    268.321 ao            1 LIG        0.077650
     12 C10          94.572     51.959    267.800 ap            1 LIG       -0.166209
     13 C11          94.835     53.175    268.435 aq            1 LIG       -0.192262
     14 C12          94.127     53.514    269.589 av            1 LIG        0.158204
     15 C13          93.167     52.661    270.109 aw            1 LIG       -0.192262
     16 C14          92.895     51.462    269.472 ax            1 LIG       -0.166209
     17 N3           90.271     48.121    266.314 ay            1 LIG       -0.560717
     18 C15          89.714     47.342    265.286 az            1 LIG        0.147514
     19 C16          90.416     47.127    264.094 bb            1 LIG        0.179241
     20 N4           89.908     46.443    263.039 bc            1 LIG       -0.463596
     21 C17          88.656     45.941    263.163 bd            1 LIG        0.241729
     22 C18          87.886     46.090    264.315 bf            1 LIG       -0.271039
     23 C19          88.421     46.800    265.397 bg            1 LIG       -0.023866
     24 S1           87.481     46.887    266.924 bh            1 LIG        0.920018
     25 O1           86.132     46.384    266.664 bj            1 LIG       -0.547031
     26 O2           87.666     48.232    267.486 bk            1 LIG       -0.547031
     27 C20          88.376     45.641    268.020 bl            1 LIG       -0.370489
     28 Br1          94.465     55.114    270.555 bm            1 LIG       -0.132408
     29 H1           92.281     46.386    266.052 bn            1 LIG        0.165451
     30 H2           91.214     50.285    267.430 bo            1 LIG        0.160173
     31 H3           97.470     48.145    268.046 bp            1 LIG        0.060886
     32 H4           96.772     45.942    267.035 bq            1 LIG        0.062714
     33 H5           95.109     51.683    266.912 bs            1 LIG        0.160546
     34 H6           95.587     53.838    268.018 bt            1 LIG        0.161626
     35 H7           92.650     52.936    271.021 bu            1 LIG        0.161626
     36 H8           92.156     50.805    269.900 bv            1 LIG        0.160546
     37 H9           89.579     48.603    266.876 bw            1 LIG        0.375483
     38 H10          91.409     47.525    263.966 bx            1 LIG        0.090229
     39 H11          88.270     45.388    262.319 by            1 LIG        0.081373
     40 H12          86.901     45.645    264.372 bz            1 LIG        0.181099
     41 H13          87.857     45.544    268.972 cb            1 LIG        0.148947
     42 H14          89.401     45.984    268.165 ci            1 LIG        0.148947
     43 H15          88.367     44.674    267.519 cj            1 LIG        0.148947
@<TRIPOS>BOND
        1  1  4  2
        2  1  6  1
        3  1  11  1
        4  2  3  2
        5  2  5  1
        6  2  29  1
        7  3  4  1
        8  3  17  1
        9  4  30  1
        10  5  6  2
        11  5  10  1
        12  6  7  1
        13  7  8  2
        14  8  9  1
        15  8  31  1
        16  9  10  2
        17  9  32  1
        18  11  12  2
        19  11  16  1
        20  12  13  1
        21  12  33  1
        22  13  14  2
        23  13  34  1
        24  14  15  1
        25  14  28  1
        26  15  16  2
        27  15  35  1
        28  16  36  1
        29  17  18  1
        30  17  37  1
        31  18  19  2
        32  18  23  1
        33  19  20  1
        34  19  38  1
        35  20  21  2
        36  21  22  1
        37  21  39  1
        38  22  23  2
        39  22  40  1
        40  23  24  1
        41  24  25  2
        42  24  26  2
        43  24  27  1
        44  27  41  1
        45  27  42  1
        46  27  43  1
@<TRIPOS>SUBSTRUCTURE
       1 LIG             1 RESIDUE    0 **** ROOT      0
