@<TRIPOS>MOLECULE
LIG
52 56
SMALL
USER_CHARGES
@<TRIPOS>ATOM
      1 C1           -6.368     12.363    -12.018 aa            1 LIG        0.006979
      2 C2           -6.515     11.807    -10.737 ab            1 LIG       -0.228452
      3 C3           -7.715     10.575    -13.031 ad            1 LIG       -0.205455
      4 C4           -6.982     11.769    -13.125 ae            1 LIG       -0.192221
      5 C5           -7.814     10.011    -11.756 af            1 LIG        0.070613
      6 C6           -7.241     10.618    -10.602 ah            1 LIG        0.058109
      7 C7           -7.613      9.747     -9.512 ai            1 LIG        0.102270
      8 N1           -8.285      8.732     -9.981 aj            1 LIG       -0.420643
      9 N2           -8.415      8.862    -11.297 ak            1 LIG       -0.023218
     10 C8           -7.336      9.892     -8.027 an            1 LIG        0.032889
     11 N3           -4.365     13.720    -11.503 ao            1 LIG       -0.349689
     12 C9           -5.545     13.633    -12.194 ap            1 LIG        0.671840
     13 O1           -5.940     14.523    -12.948 aq            1 LIG       -0.615884
     14 C10          -5.963     10.485     -7.736 av            1 LIG        0.089652
     15 C11          -4.811      9.765     -8.052 aw            1 LIG       -0.195545
     16 C12          -3.552     10.314     -7.802 ax            1 LIG       -0.193296
     17 C13          -3.444     11.587     -7.232 ay            1 LIG        0.108759
     18 C14          -4.596     12.304     -6.913 az            1 LIG       -0.193296
     19 C15          -5.853     11.754     -7.162 bb            1 LIG       -0.195545
     20 C16          -2.100     12.177     -6.966 bc            1 LIG        0.036204
     21 C17          -1.771     13.421     -6.432 bd            1 LIG       -0.191906
     22 N4           -0.432     13.487     -6.391 bf            1 LIG        0.227513
     23 N5            0.171     12.415     -6.849 bg            1 LIG       -0.438264
     24 C18          -0.804     11.600     -7.205 bh            1 LIG       -0.015444
     25 C19           0.385     14.593     -5.906 bj            1 LIG       -0.204000
     26 C20          -3.719     12.572    -10.844 bk            1 LIG        0.014432
     27 C21          -2.235     12.946    -10.973 bl            1 LIG        0.297942
     28 C22          -2.191     14.464    -10.953 bm            1 LIG       -0.047765
     29 C23          -3.512     14.909    -11.600 bn            1 LIG        0.023740
     30 F1           -1.710     12.470    -12.116 bo            1 LIG       -0.207821
     31 F2           -1.517     12.436     -9.956 bp            1 LIG       -0.207821
     32 H1           -6.085     12.287     -9.868 bq            1 LIG        0.165025
     33 H2           -8.168     10.119    -13.899 bs            1 LIG        0.141811
     34 H3           -6.867     12.225    -14.097 bt            1 LIG        0.145677
     35 H4           -8.910      8.158    -11.838 bu            1 LIG        0.284990
     36 H5           -8.099     10.547     -7.598 bv            1 LIG        0.038554
     37 H6           -7.447      8.929     -7.519 bw            1 LIG        0.038554
     38 H7           -4.888      8.782     -8.496 bx            1 LIG        0.134954
     39 H8           -2.665      9.751     -8.047 by            1 LIG        0.138108
     40 H9           -4.519     13.288     -6.474 bz            1 LIG        0.138108
     41 H10          -6.740     12.317     -6.914 cb            1 LIG        0.134954
     42 H11          -2.378     14.245     -6.087 ci            1 LIG        0.150259
     43 H12          -0.605     10.629     -7.623 cj            1 LIG        0.143222
     44 H13          -0.245     15.415     -5.564 ck            1 LIG        0.105045
     45 H14           1.027     14.948     -6.709 cm            1 LIG        0.105045
     46 H15           1.008     14.255     -5.081 cn            1 LIG        0.105045
     47 H16          -3.941     12.548     -9.781 ct            1 LIG        0.089411
     48 H17          -3.889     11.600    -11.321 cw            1 LIG        0.089411
     49 H18          -2.122     14.812     -9.925 da            1 LIG        0.055366
     50 H19          -1.319     14.870    -11.477 db            1 LIG        0.055366
     51 H20          -3.321     15.206    -12.632 dc            1 LIG        0.063208
     52 H21          -3.954     15.733    -11.039 dd            1 LIG        0.063208
@<TRIPOS>BOND
        1  1  2  2
        2  1  4  1
        3  1  12  1
        4  2  6  1
        5  2  32  1
        6  3  4  2
        7  3  5  1
        8  3  33  1
        9  4  34  1
        10  5  6  2
        11  5  9  1
        12  6  7  1
        13  7  8  2
        14  7  10  1
        15  8  9  1
        16  9  35  1
        17  10  14  1
        18  10  36  1
        19  10  37  1
        20  11  12  1
        21  11  26  1
        22  11  29  1
        23  12  13  2
        24  14  15  2
        25  14  19  1
        26  15  16  1
        27  15  38  1
        28  16  17  2
        29  16  39  1
        30  17  18  1
        31  17  20  1
        32  18  19  2
        33  18  40  1
        34  19  41  1
        35  20  21  2
        36  20  24  1
        37  21  22  1
        38  21  42  1
        39  22  23  1
        40  22  25  1
        41  23  24  2
        42  24  43  1
        43  25  44  1
        44  25  45  1
        45  25  46  1
        46  26  27  1
        47  26  47  1
        48  26  48  1
        49  27  28  1
        50  27  30  1
        51  27  31  1
        52  28  29  1
        53  28  49  1
        54  28  50  1
        55  29  51  1
        56  29  52  1
@<TRIPOS>SUBSTRUCTURE
       1 LIG             1 RESIDUE    0 **** ROOT      0
