@<TRIPOS>MOLECULE
LIG
70 73
SMALL
USER_CHARGES
@<TRIPOS>ATOM
      1 C1           11.894     -2.887      6.659 aa            1 LIG       -0.291448
      2 C2           13.161     -3.183      7.491 ab            1 LIG        0.143463
      3 N1           14.189     -3.956      6.653 ad            1 LIG       -0.221688
      4 C3           15.283     -4.617      7.535 ae            1 LIG        0.040138
      5 C4           14.648     -5.632      8.488 af            1 LIG        0.229924
      6 O1           15.631     -6.488      9.015 ah            1 LIG       -0.618326
      7 C5           14.783     -3.043      5.547 ai            1 LIG        0.045894
      8 C6           14.940     -3.782      4.194 aj            1 LIG        0.258524
      9 C7           15.083     -5.332      4.234 ak            1 LIG       -0.068265
     10 C8           15.213     -5.918      2.824 an            1 LIG       -0.056692
     11 C9           14.100     -5.419      1.881 ao            1 LIG        0.047973
     12 C10          12.709     -6.074      2.136 ap            1 LIG        0.124114
     13 C11          12.756     -7.594      2.038 aq            1 LIG        0.070305
     14 C12          12.323     -8.379      3.108 av            1 LIG       -0.196149
     15 C13          12.401     -9.766      3.021 aw            1 LIG       -0.136754
     16 C14          12.905    -10.367      1.871 ax            1 LIG       -0.137123
     17 C15          13.326     -9.590      0.795 ay            1 LIG       -0.136754
     18 C16          13.248     -8.206      0.880 az            1 LIG       -0.196149
     19 N2           11.708     -5.529      1.220 bb            1 LIG       -0.566100
     20 C17          11.789     -4.199      0.786 bc            1 LIG        0.222822
     21 C18          10.778     -3.735     -0.046 bd            1 LIG       -0.218217
     22 C19          10.833     -2.446     -0.543 bf            1 LIG       -0.190571
     23 C20          11.876     -1.579     -0.195 bg            1 LIG       -0.043524
     24 C21          11.923     -0.152     -0.769 bh            1 LIG        0.591966
     25 C22          12.668      0.825      0.165 bj            1 LIG       -0.353909
     26 C23          10.476      0.339     -0.993 bk            1 LIG       -0.353909
     27 C24          12.671     -0.146     -2.107 bl            1 LIG       -0.353909
     28 C25          12.867     -2.050      0.675 bm            1 LIG       -0.252093
     29 C26          12.860     -3.361      1.145 bn            1 LIG       -0.036691
     30 C27          14.015     -3.879      1.982 bo            1 LIG        0.275162
     31 O2           13.826     -3.471      3.339 bp            1 LIG       -0.484791
     32 H1           11.174     -2.300      7.250 bq            1 LIG        0.110695
     33 H2           11.415     -3.826      6.362 bs            1 LIG        0.110695
     34 H3           12.079     -2.328      5.740 bt            1 LIG        0.110695
     35 H4           13.670     -2.285      7.865 bu            1 LIG        0.075457
     36 H5           12.853     -3.773      8.349 bv            1 LIG        0.075457
     37 H6           15.975     -5.115      6.876 bw            1 LIG        0.081457
     38 H7           15.811     -3.826      8.055 bx            1 LIG        0.081457
     39 H8           14.168     -5.162      9.354 by            1 LIG        0.040533
     40 H9           13.895     -6.230      7.969 bz            1 LIG        0.040533
     41 H10          16.160     -5.988      9.653 cb            1 LIG        0.414752
     42 H11          14.150     -2.197      5.370 ci            1 LIG        0.083921
     43 H12          15.725     -2.631      5.918 cj            1 LIG        0.083921
     44 H13          15.846     -3.351      3.738 ck            1 LIG        0.012831
     45 H14          15.974     -5.614      4.782 cm            1 LIG        0.025569
     46 H15          14.232     -5.790      4.745 cn            1 LIG        0.025569
     47 H16          16.180     -5.623      2.416 ct            1 LIG        0.029414
     48 H17          15.237     -7.004      2.886 cw            1 LIG        0.029414
     49 H18          14.413     -5.637      0.860 da            1 LIG        0.017731
     50 H19          12.374     -5.819      3.144 db            1 LIG        0.046840
     51 H20          11.936     -7.918      4.005 dc            1 LIG        0.140419
     52 H21          12.066    -10.374      3.849 dd            1 LIG        0.145580
     53 H22          12.949    -11.444      1.803 de            1 LIG        0.146585
     54 H23          13.694    -10.059     -0.104 df            1 LIG        0.145580
     55 H24          13.557     -7.606      0.037 dg            1 LIG        0.140419
     56 H25          10.799     -5.971      1.289 dh            1 LIG        0.330314
     57 H26           9.945     -4.366     -0.316 di            1 LIG        0.141111
     58 H27          10.034     -2.135     -1.197 dj            1 LIG        0.148144
     59 H28          12.590      1.875     -0.128 dk            1 LIG        0.070838
     60 H29          13.730      0.587      0.198 dl            1 LIG        0.070838
     61 H30          12.372      0.701      1.192 dm            1 LIG        0.070838
     62 H31           9.785     -0.003     -0.258 dn            1 LIG        0.070838
     63 H32          10.027     -0.077     -1.913 do            1 LIG        0.070838
     64 H33          10.327      1.382     -1.097 dp            1 LIG        0.070838
     65 H34          12.613      0.805     -2.635 dq            1 LIG        0.070838
     66 H35          12.227     -0.894     -2.736 dr            1 LIG        0.070838
     67 H36          13.720     -0.412     -1.998 ds            1 LIG        0.070838
     68 H37          13.688     -1.419      0.974 dt            1 LIG        0.148082
     69 H38          14.939     -3.440      1.602 dv            1 LIG       -0.002955
     70 H39          13.694     -4.701      6.204 dw            1 LIG        0.245013
@<TRIPOS>BOND
        1  1  2  1
        2  1  32  1
        3  1  33  1
        4  1  34  1
        5  2  3  1
        6  2  35  1
        7  2  36  1
        8  3  4  1
        9  3  7  1
        10  3  70  1
        11  4  5  1
        12  4  37  1
        13  4  38  1
        14  5  6  1
        15  5  39  1
        16  5  40  1
        17  6  41  1
        18  7  8  1
        19  7  42  1
        20  7  43  1
        21  8  9  1
        22  8  31  1
        23  8  44  1
        24  9  10  1
        25  9  45  1
        26  9  46  1
        27  10  11  1
        28  10  47  1
        29  10  48  1
        30  11  12  1
        31  11  30  1
        32  11  49  1
        33  12  13  1
        34  12  19  1
        35  12  50  1
        36  13  14  2
        37  13  18  1
        38  14  15  1
        39  14  51  1
        40  15  16  2
        41  15  52  1
        42  16  17  1
        43  16  53  1
        44  17  18  2
        45  17  54  1
        46  18  55  1
        47  19  20  1
        48  19  56  1
        49  20  21  2
        50  20  29  1
        51  21  22  1
        52  21  57  1
        53  22  23  2
        54  22  58  1
        55  23  24  1
        56  23  28  1
        57  24  25  1
        58  24  26  1
        59  24  27  1
        60  25  59  1
        61  25  60  1
        62  25  61  1
        63  26  62  1
        64  26  63  1
        65  26  64  1
        66  27  65  1
        67  27  66  1
        68  27  67  1
        69  28  29  2
        70  28  68  1
        71  29  30  1
        72  30  31  1
        73  30  69  1
@<TRIPOS>SUBSTRUCTURE
       1 LIG             1 RESIDUE    0 **** ROOT      0
