@<TRIPOS>MOLECULE
LIG
44 48
SMALL
USER_CHARGES
@<TRIPOS>ATOM
      1 N1           90.267     48.124    266.316 aa            1 LIG       -0.551484
      2 C1           91.605     48.330    266.678 ab            1 LIG        0.280042
      3 C2           91.966     49.528    267.282 ad            1 LIG       -0.244174
      4 C3           93.280     49.788    267.695 ae            1 LIG       -0.002904
      5 C4           94.267     48.769    267.523 af            1 LIG        0.244149
      6 C5           93.890     47.529    266.925 ah            1 LIG        0.294219
      7 C6           92.560     47.336    266.492 ai            1 LIG       -0.312590
      8 C7           93.582     51.087    268.341 aj            1 LIG        0.068032
      9 C8           94.554     51.929    267.800 ak            1 LIG       -0.176174
     10 C9           94.842     53.160    268.377 an            1 LIG       -0.194405
     11 C10          94.134     53.569    269.520 ao            1 LIG        0.069518
     12 C11          93.179     52.683    270.096 ap            1 LIG        0.061907
     13 C12          92.888     51.450    269.498 aq            1 LIG       -0.240000
     14 C13          94.138     54.725    270.329 av            1 LIG       -0.220863
     15 C14          93.323     54.502    271.397 aw            1 LIG       -0.138466
     16 N2           92.727     53.283    271.257 ax            1 LIG        0.031606
     17 C15          91.814     52.707    272.236 ay            1 LIG       -0.187784
     18 N3           94.794     46.522    266.780 az            1 LIG       -0.495646
     19 C16          96.063     46.742    267.202 bb            1 LIG        0.171627
     20 C17          96.446     47.956    267.760 bc            1 LIG        0.164060
     21 N4           95.556     48.961    267.946 bd            1 LIG       -0.483856
     22 C18          89.729     47.355    265.277 bf            1 LIG        0.193182
     23 C19          90.432     47.128    264.088 bg            1 LIG        0.175393
     24 N5           89.917     46.433    263.038 bh            1 LIG       -0.485570
     25 C20          88.663     45.929    263.176 bj            1 LIG        0.240125
     26 C21          87.896     46.102    264.329 bk            1 LIG       -0.224282
     27 C22          88.433     46.839    265.386 bl            1 LIG       -0.189206
     28 H1           89.584     48.553    266.921 bm            1 LIG        0.335489
     29 H2           91.210     50.287    267.433 bn            1 LIG        0.153440
     30 H3           92.282     46.390    266.053 bo            1 LIG        0.152606
     31 H4           95.095     51.627    266.915 bp            1 LIG        0.153949
     32 H5           95.594     53.801    267.942 bq            1 LIG        0.140454
     33 H6           92.168     50.790    269.933 bs            1 LIG        0.131383
     34 H7           94.749     55.618    270.197 bt            1 LIG        0.142278
     35 H8           93.100     55.125    272.256 bu            1 LIG        0.146389
     36 H9           90.868     52.463    271.768 bv            1 LIG        0.093895
     37 H10          91.649     53.424    273.039 bw            1 LIG        0.093895
     38 H11          92.260     51.808    272.650 bx            1 LIG        0.093895
     39 H12          96.770     45.944    267.045 by            1 LIG        0.054615
     40 H13          97.470     48.148    268.048 bz            1 LIG        0.053590
     41 H14          91.425     47.522    263.954 cb            1 LIG        0.055027
     42 H15          88.270     45.372    262.340 ci            1 LIG        0.057470
     43 H16          86.908     45.669    264.407 cj            1 LIG        0.144647
     44 H17          87.855     46.987    266.288 ck            1 LIG        0.150525
@<TRIPOS>BOND
        1  1  2  1
        2  1  22  1
        3  1  28  1
        4  2  3  2
        5  2  7  1
        6  3  4  1
        7  3  29  1
        8  4  5  2
        9  4  8  1
        10  5  21  1
        11  5  6  1
        12  6  7  2
        13  6  18  1
        14  7  30  1
        15  8  9  2
        16  8  13  1
        17  9  10  1
        18  9  31  1
        19  10  11  2
        20  10  32  1
        21  11  12  1
        22  11  14  1
        23  12  13  2
        24  12  16  1
        25  13  33  1
        26  14  15  2
        27  14  34  1
        28  15  16  1
        29  15  35  1
        30  16  17  1
        31  17  36  1
        32  17  37  1
        33  17  38  1
        34  18  19  2
        35  19  20  1
        36  19  39  1
        37  20  21  2
        38  20  40  1
        39  22  23  2
        40  22  27  1
        41  23  24  1
        42  23  41  1
        43  24  25  2
        44  25  26  1
        45  25  42  1
        46  26  27  2
        47  26  43  1
        48  27  44  1
@<TRIPOS>SUBSTRUCTURE
       1 LIG             1 RESIDUE    0 **** ROOT      0
