@<TRIPOS>MOLECULE
LIG
46 49
SMALL
USER_CHARGES
@<TRIPOS>ATOM
      1 C1           24.644     33.757     50.530 aa            1 LIG       -0.241461
      2 C2           24.195     33.608     51.971 ab            1 LIG        0.059850
      3 C3           22.927     33.128     52.287 ad            1 LIG       -0.180972
      4 C4           22.556     32.982     53.625 ae            1 LIG       -0.238673
      5 C5           23.468     33.317     54.640 af            1 LIG        0.427438
      6 N1           24.703     33.806     54.329 ah            1 LIG       -0.529102
      7 C6           25.050     33.935     53.024 ai            1 LIG        0.189710
      8 C7           23.195     33.056     56.098 aj            1 LIG       -0.017842
      9 C8           24.228     33.108     57.053 ak            1 LIG       -0.172483
     10 C9           24.015     32.715     58.374 an            1 LIG       -0.137127
     11 C10          22.760     32.268     58.776 ao            1 LIG       -0.194990
     12 C11          21.701     32.252     57.867 ap            1 LIG        0.086747
     13 C12          20.311     31.811     58.323 aq            1 LIG        0.029581
     14 N2           19.972     30.431     57.931 av            1 LIG        0.046154
     15 N3           19.438     30.270     56.649 aw            1 LIG       -0.388936
     16 C13          19.071     29.117     56.187 ax            1 LIG        0.211823
     17 C14          19.310     27.972     57.053 ay            1 LIG       -0.098441
     18 C15          19.848     28.116     58.286 az            1 LIG       -0.192278
     19 C16          20.209     29.411     58.831 bb            1 LIG        0.588044
     20 O1           20.647     29.536     59.976 bc            1 LIG       -0.638775
     21 C17          18.436     28.957     54.856 bd            1 LIG        0.118088
     22 C18          17.952     30.091     54.175 bf            1 LIG       -0.266024
     23 C19          17.298     29.969     52.951 bg            1 LIG        0.224237
     24 F1           16.836     31.076     52.323 bh            1 LIG       -0.161233
     25 C20          17.110     28.712     52.384 bj            1 LIG       -0.275280
     26 C21          17.583     27.578     53.040 bk            1 LIG        0.224237
     27 F2           17.389     26.356     52.499 bl            1 LIG       -0.161233
     28 C22          18.247     27.699     54.260 bm            1 LIG       -0.266024
     29 C23          21.919     32.667     56.550 bn            1 LIG       -0.225509
     30 H1           25.176     32.859     50.208 bo            1 LIG        0.081230
     31 H2           25.316     34.608     50.414 bp            1 LIG        0.081230
     32 H3           23.792     33.911     49.866 bq            1 LIG        0.081230
     33 H4           22.230     32.865     51.505 bs            1 LIG        0.138771
     34 H5           21.578     32.576     53.836 bt            1 LIG        0.140009
     35 H6           26.043     34.312     52.822 bu            1 LIG        0.059657
     36 H7           25.227     33.406     56.773 bv            1 LIG        0.141790
     37 H8           24.833     32.734     59.078 bw            1 LIG        0.143471
     38 H9           22.612     31.926     59.790 bx            1 LIG        0.142523
     39 H10          20.210     31.963     59.400 by            1 LIG        0.081391
     40 H11          19.570     32.493     57.896 bz            1 LIG        0.081391
     41 H12          19.066     26.964     56.751 cb            1 LIG        0.119053
     42 H13          20.018     27.242     58.898 ci            1 LIG        0.140057
     43 H14          18.062     31.079     54.595 cj            1 LIG        0.184915
     44 H15          16.596     28.612     51.440 ck            1 LIG        0.189575
     45 H16          18.599     26.787     54.720 cm            1 LIG        0.184915
     46 H17          21.082     32.637     55.871 cn            1 LIG        0.189268
@<TRIPOS>BOND
        1  1  2  1
        2  1  30  1
        3  1  31  1
        4  1  32  1
        5  2  3  2
        6  2  7  1
        7  3  4  1
        8  3  33  1
        9  4  5  2
        10  4  34  1
        11  5  6  1
        12  5  8  1
        13  6  7  2
        14  7  35  1
        15  8  9  2
        16  8  29  1
        17  9  10  1
        18  9  36  1
        19  10  11  2
        20  10  37  1
        21  11  12  1
        22  11  38  1
        23  12  13  1
        24  12  29  2
        25  13  14  1
        26  13  39  1
        27  13  40  1
        28  14  15  1
        29  14  19  1
        30  15  16  2
        31  16  17  1
        32  16  21  1
        33  17  18  2
        34  17  41  1
        35  18  19  1
        36  18  42  1
        37  19  20  2
        38  21  22  2
        39  21  28  1
        40  22  23  1
        41  22  43  1
        42  23  24  1
        43  23  25  2
        44  25  26  1
        45  25  44  1
        46  26  27  1
        47  26  28  2
        48  28  45  1
        49  29  46  1
@<TRIPOS>SUBSTRUCTURE
       1 LIG             1 RESIDUE    0 **** ROOT      0
