@<TRIPOS>MOLECULE
LIG
66 70
SMALL
USER_CHARGES
@<TRIPOS>ATOM
      1 N1           17.059     -4.328      9.302 aa            1 LIG       -0.508050
      2 C1           16.411     -3.678      8.064 ab            1 LIG        0.615431
      3 C2           15.428     -4.654      7.421 ad            1 LIG        0.046061
      4 N2           14.317     -3.963      6.710 ae            1 LIG       -0.391597
      5 C3           14.671     -3.120      5.567 af            1 LIG        0.037749
      6 C4           14.878     -3.795      4.188 ah            1 LIG        0.246563
      7 C5           15.101     -5.330      4.215 ai            1 LIG       -0.069815
      8 C6           15.223     -5.922      2.812 aj            1 LIG       -0.055591
      9 C7           14.117     -5.422      1.856 ak            1 LIG        0.053370
     10 C8           12.722     -6.075      2.095 an            1 LIG        0.121782
     11 C9           12.773     -7.601      2.028 ao            1 LIG        0.073765
     12 C10          13.271     -8.222      0.880 ap            1 LIG       -0.193300
     13 C11          13.333     -9.606      0.805 aq            1 LIG       -0.133614
     14 C12          12.918    -10.380      1.884 av            1 LIG       -0.132891
     15 C13          12.418     -9.771      3.031 aw            1 LIG       -0.133614
     16 C14          12.338     -8.381      3.103 ax            1 LIG       -0.193300
     17 N3           11.741     -5.530      1.148 ay            1 LIG       -0.552718
     18 C15          11.810     -4.192      0.730 az            1 LIG        0.231223
     19 C16          10.782     -3.708     -0.082 bb            1 LIG       -0.215867
     20 C17          10.802     -2.393     -0.540 bc            1 LIG       -0.189609
     21 C18          11.848     -1.538     -0.182 bd            1 LIG       -0.101052
     22 C19          11.893     -0.109     -0.718 bf            1 LIG        0.688943
     23 F1           10.661      0.385     -0.902 bg            1 LIG       -0.232817
     24 F2           12.543      0.715      0.102 bh            1 LIG       -0.232817
     25 F3           12.527     -0.116     -1.890 bj            1 LIG       -0.232817
     26 C20          12.859     -2.021      0.655 bk            1 LIG       -0.245384
     27 C21          12.876     -3.350      1.100 bl            1 LIG       -0.026513
     28 C22          14.026     -3.879      1.952 bm            1 LIG        0.264686
     29 O1           13.799     -3.474      3.302 bn            1 LIG       -0.487479
     30 C23          13.315     -3.384      7.523 bo            1 LIG        0.255498
     31 C24          13.526     -3.162      8.877 bp            1 LIG       -0.224137
     32 C25          12.667     -2.358      9.618 bq            1 LIG       -0.134879
     33 C26          11.592     -1.794      8.980 bs            1 LIG       -0.144675
     34 C27          11.244     -2.116      7.676 bt            1 LIG       -0.134879
     35 C28          12.120     -2.943      6.943 bu            1 LIG       -0.224137
     36 H1           17.657     -3.662      9.757 bv            1 LIG        0.333715
     37 H2           17.610     -5.131      9.045 bw            1 LIG        0.333715
     38 H3           15.919     -2.793      8.443 bx            1 LIG       -0.120402
     39 H4           17.238     -3.406      7.442 by            1 LIG       -0.120402
     40 H5           15.931     -5.322      6.761 bz            1 LIG        0.078894
     41 H6           14.981     -5.276      8.192 cb            1 LIG        0.078894
     42 H7           13.925     -2.327      5.443 ci            1 LIG        0.045738
     43 H8           15.569     -2.557      5.816 cj            1 LIG        0.045738
     44 H9           15.773     -3.325      3.779 ck            1 LIG        0.039258
     45 H10          16.024     -5.562      4.737 cm            1 LIG        0.034589
     46 H11          14.290     -5.820      4.756 cn            1 LIG        0.034589
     47 H12          16.196     -5.643      2.408 ct            1 LIG        0.030839
     48 H13          15.243     -7.009      2.882 cw            1 LIG        0.030839
     49 H14          14.447     -5.656      0.843 da            1 LIG       -0.004756
     50 H15          12.374     -5.804      3.094 db            1 LIG        0.048012
     51 H16          13.609     -7.631      0.043 dc            1 LIG        0.137794
     52 H17          13.726    -10.064     -0.089 dd            1 LIG        0.150570
     53 H18          12.974    -11.458      1.826 de            1 LIG        0.153467
     54 H19          12.084    -10.377      3.862 df            1 LIG        0.150570
     55 H20          11.945     -7.915      3.994 dg            1 LIG        0.137794
     56 H21          10.868     -6.036      1.103 dh            1 LIG        0.340464
     57 H22           9.964     -4.355     -0.365 di            1 LIG        0.157764
     58 H23          10.004     -2.039     -1.179 dj            1 LIG        0.161309
     59 H24          13.670     -1.362      0.936 dk            1 LIG        0.183134
     60 H25          14.958     -3.438      1.590 dl            1 LIG        0.033958
     61 H26          14.377     -3.586      9.381 dm            1 LIG        0.135077
     62 H27          12.848     -2.179     10.662 dn            1 LIG        0.152564
     63 H28          10.918     -1.148      9.540 do            1 LIG        0.151401
     64 H29          10.354     -1.724      7.237 dp            1 LIG        0.152564
     65 H30          11.846     -3.204      5.930 dq            1 LIG        0.135077
     66 H31          16.340     -4.610      9.942 dr            1 LIG        0.333715
@<TRIPOS>BOND
        1  1  2  1
        2  1  36  1
        3  1  37  1
        4  1  66  1
        5  2  3  1
        6  2  38  1
        7  2  39  1
        8  3  4  1
        9  3  40  1
        10  3  41  1
        11  4  5  1
        12  4  30  1
        13  5  6  1
        14  5  42  1
        15  5  43  1
        16  6  7  1
        17  6  29  1
        18  6  44  1
        19  7  8  1
        20  7  45  1
        21  7  46  1
        22  8  9  1
        23  8  47  1
        24  8  48  1
        25  9  10  1
        26  9  28  1
        27  9  49  1
        28  10  11  1
        29  10  17  1
        30  10  50  1
        31  11  12  2
        32  11  16  1
        33  12  13  1
        34  12  51  1
        35  13  14  2
        36  13  52  1
        37  14  15  1
        38  14  53  1
        39  15  16  2
        40  15  54  1
        41  16  55  1
        42  17  18  1
        43  17  56  1
        44  18  19  2
        45  18  27  1
        46  19  20  1
        47  19  57  1
        48  20  21  2
        49  20  58  1
        50  21  22  1
        51  21  26  1
        52  22  23  1
        53  22  24  1
        54  22  25  1
        55  26  27  2
        56  26  59  1
        57  27  28  1
        58  28  29  1
        59  28  60  1
        60  30  31  2
        61  30  35  1
        62  31  32  1
        63  31  61  1
        64  32  33  2
        65  32  62  1
        66  33  34  1
        67  33  63  1
        68  34  35  2
        69  34  64  1
        70  35  65  1
@<TRIPOS>SUBSTRUCTURE
       1 LIG             1 RESIDUE    0 **** ROOT      0
