@<TRIPOS>MOLECULE
LIG
46 49
SMALL
USER_CHARGES
@<TRIPOS>ATOM
      1 C1           -6.386     12.362    -11.970 aa            1 LIG        0.271690
      2 C2           -6.548     11.802    -10.708 ab            1 LIG       -0.266906
      3 C3           -7.687     10.573    -13.033 ad            1 LIG       -0.202092
      4 C4           -6.953     11.767    -13.105 ae            1 LIG       -0.220646
      5 C5           -7.821     10.009    -11.756 af            1 LIG        0.062916
      6 C6           -7.264     10.618    -10.592 ah            1 LIG        0.058029
      7 C7           -7.633      9.742     -9.510 ai            1 LIG        0.096962
      8 N1           -8.302      8.733     -9.990 aj            1 LIG       -0.423004
      9 N2           -8.434      8.868    -11.305 ak            1 LIG       -0.024229
     10 C8           -7.341      9.876     -8.021 an            1 LIG        0.031716
     11 S1           -4.121     13.875    -11.200 ao            1 LIG        1.077461
     12 C9           -2.919     12.540    -11.768 ap            1 LIG       -0.391012
     13 N3           -5.638     13.543    -12.105 aq            1 LIG       -0.634456
     14 C10          -5.968     10.483     -7.734 av            1 LIG        0.090587
     15 C11          -4.812      9.769     -8.049 aw            1 LIG       -0.196650
     16 C12          -3.559     10.324     -7.797 ax            1 LIG       -0.196911
     17 C13          -3.454     11.596     -7.229 ay            1 LIG        0.104908
     18 C14          -4.613     12.309     -6.908 az            1 LIG       -0.196911
     19 C15          -5.867     11.754     -7.161 bb            1 LIG       -0.196650
     20 C16          -2.106     12.187     -6.964 bc            1 LIG        0.033353
     21 C17          -1.774     13.441     -6.464 bd            1 LIG       -0.192484
     22 N4           -0.439     13.498     -6.404 bf            1 LIG        0.228699
     23 N5            0.169     12.415     -6.801 bg            1 LIG       -0.436455
     24 C18          -0.803     11.600     -7.177 bh            1 LIG       -0.016860
     25 C19           0.369     14.614     -5.954 bj            1 LIG       -0.204910
     26 O1           -3.650     15.172    -11.687 bk            1 LIG       -0.547701
     27 O2           -4.365     13.675     -9.770 bl            1 LIG       -0.547701
     28 H1           -6.119     12.265     -9.843 bm            1 LIG        0.146864
     29 H2           -8.112     10.114    -13.915 bn            1 LIG        0.148621
     30 H3           -6.814     12.237    -14.069 bo            1 LIG        0.179092
     31 H4           -8.932      8.166    -11.846 bp            1 LIG        0.284480
     32 H5           -7.424      8.916     -7.506 bq            1 LIG        0.040552
     33 H6           -8.091     10.535     -7.582 bs            1 LIG        0.040552
     34 H7           -1.969     12.683    -11.249 bt            1 LIG        0.154657
     35 H8           -2.767     12.624    -12.832 bu            1 LIG        0.154657
     36 H9           -3.331     11.565    -11.524 bv            1 LIG        0.154657
     37 H10          -5.906     14.216    -12.808 bw            1 LIG        0.376459
     38 H11          -4.888      8.786     -8.492 bx            1 LIG        0.136362
     39 H12          -2.667      9.766     -8.042 by            1 LIG        0.136719
     40 H13          -4.538     13.290     -6.466 bz            1 LIG        0.136719
     41 H14          -6.758     12.312     -6.918 cb            1 LIG        0.136362
     42 H15          -2.377     14.280     -6.156 ci            1 LIG        0.151269
     43 H16          -0.599     10.615     -7.576 cj            1 LIG        0.142032
     44 H17           0.985     14.294     -5.113 ck            1 LIG        0.106401
     45 H18          -0.262     15.449     -5.648 cm            1 LIG        0.106401
     46 H19           1.021     14.935     -6.767 cn            1 LIG        0.106401
@<TRIPOS>BOND
        1  1  2  2
        2  1  4  1
        3  1  13  1
        4  2  6  1
        5  2  28  1
        6  3  4  2
        7  3  5  1
        8  3  29  1
        9  4  30  1
        10  5  6  2
        11  5  9  1
        12  6  7  1
        13  7  8  2
        14  7  10  1
        15  8  9  1
        16  9  31  1
        17  10  14  1
        18  10  32  1
        19  10  33  1
        20  11  12  1
        21  11  13  1
        22  11  26  2
        23  11  27  2
        24  12  34  1
        25  12  35  1
        26  12  36  1
        27  13  37  1
        28  14  15  2
        29  14  19  1
        30  15  16  1
        31  15  38  1
        32  16  17  2
        33  16  39  1
        34  17  18  1
        35  17  20  1
        36  18  19  2
        37  18  40  1
        38  19  41  1
        39  20  21  2
        40  20  24  1
        41  21  22  1
        42  21  42  1
        43  22  23  1
        44  22  25  1
        45  23  24  2
        46  24  43  1
        47  25  44  1
        48  25  45  1
        49  25  46  1
@<TRIPOS>SUBSTRUCTURE
       1 LIG             1 RESIDUE    0 **** ROOT      0
