@<TRIPOS>MOLECULE
LIG
40 42
SMALL
USER_CHARGES
@<TRIPOS>ATOM
      1 O1           27.529      1.570    -11.414 aa            1 LIG       -0.705197
      2 C1           27.145      0.262    -11.702 ab            1 LIG        0.203935
      3 C2           26.503      0.351    -13.078 ad            1 LIG        0.289918
      4 C3           25.028      0.616    -12.828 ae            1 LIG       -0.016898
      5 C4           24.803     -0.049    -11.488 af            1 LIG       -0.036531
      6 C5           26.013     -0.222    -10.807 ah            1 LIG       -0.032349
      7 C6           26.019     -0.764     -9.508 ai            1 LIG       -0.022983
      8 C7           24.801     -1.084     -8.901 aj            1 LIG       -0.183379
      9 C8           23.602     -0.938     -9.597 ak            1 LIG       -0.205888
     10 C9           23.601     -0.427    -10.900 an            1 LIG        0.218648
     11 O2           22.486     -0.295    -11.698 ao            1 LIG       -0.306819
     12 C10          21.246     -0.578    -11.201 ap            1 LIG        0.274518
     13 C11          20.675     -1.834    -11.402 aq            1 LIG       -0.276128
     14 C12          19.423     -2.113    -10.864 av            1 LIG        0.227357
     15 F1           18.860     -3.324    -11.048 aw            1 LIG       -0.155643
     16 C13          18.741     -1.139    -10.140 ax            1 LIG       -0.254554
     17 C14          19.294      0.130     -9.965 ay            1 LIG        0.192302
     18 C15          18.574      1.165     -9.244 az            1 LIG        0.222187
     19 C16          20.556      0.396    -10.484 bb            1 LIG       -0.251982
     20 S1           27.538     -1.069     -8.595 bc            1 LIG        1.089772
     21 O3           27.235     -2.012     -7.515 bd            1 LIG       -0.559285
     22 O4           28.588     -1.404     -9.554 bf            1 LIG       -0.559285
     23 N1           27.945      0.462     -7.830 bg            1 LIG       -0.673701
     24 F2           27.055      1.290    -13.857 bh            1 LIG       -0.202350
     25 F3           26.629     -0.824    -13.685 bj            1 LIG       -0.202350
     26 N2           18.005      1.986     -8.663 bk            1 LIG       -0.365233
     27 C17          28.500      1.547     -8.622 bl            1 LIG       -0.053949
     28 H1           28.423      1.764    -11.747 bm            1 LIG        0.504619
     29 H2           27.985     -0.433    -11.691 bn            1 LIG        0.084056
     30 H3           24.412      0.176    -13.605 bo            1 LIG        0.074921
     31 H4           24.812      1.689    -12.787 bp            1 LIG        0.074921
     32 H5           24.781     -1.458     -7.888 bq            1 LIG        0.199092
     33 H6           22.680     -1.237     -9.125 bs            1 LIG        0.178498
     34 H7           21.205     -2.595    -11.953 bt            1 LIG        0.180146
     35 H8           17.793     -1.390     -9.710 bu            1 LIG        0.183971
     36 H9           21.012      1.357    -10.313 bv            1 LIG        0.182335
     37 H10          28.357      0.400     -6.903 bw            1 LIG        0.403262
     38 H11          28.530      2.484     -8.083 bx            1 LIG        0.093348
     39 H12          27.787      1.771     -9.353 by            1 LIG        0.093348
     40 H13          29.462      1.280     -9.047 bz            1 LIG        0.093348
@<TRIPOS>BOND
        1  1  2  1
        2  1  28  1
        3  2  3  1
        4  2  6  1
        5  2  29  1
        6  3  4  1
        7  3  24  1
        8  3  25  1
        9  4  5  1
        10  4  30  1
        11  4  31  1
        12  5  6  2
        13  5  10  1
        14  6  7  1
        15  7  8  2
        16  7  20  1
        17  8  9  1
        18  8  32  1
        19  9  10  2
        20  9  33  1
        21  10  11  1
        22  11  12  1
        23  12  13  2
        24  12  19  1
        25  13  14  1
        26  13  34  1
        27  14  15  1
        28  14  16  2
        29  16  17  1
        30  16  35  1
        31  17  18  1
        32  17  19  2
        33  18  26  3
        34  19  36  1
        35  20  21  2
        36  20  22  2
        37  20  23  1
        38  23  27  1
        39  23  37  1
        40  27  38  1
        41  27  39  1
        42  27  40  1
@<TRIPOS>SUBSTRUCTURE
       1 LIG             1 RESIDUE    0 **** ROOT      0
