@<TRIPOS>MOLECULE
LIG
45 48
SMALL
USER_CHARGES
@<TRIPOS>ATOM
      1 C1           93.280     49.798    267.688 aa            1 LIG        0.001157
      2 C2           92.574     47.338    266.472 ab            1 LIG       -0.308446
      3 C3           91.620     48.326    266.680 ad            1 LIG        0.281564
      4 C4           91.971     49.522    267.287 ae            1 LIG       -0.242373
      5 C5           93.902     47.533    266.925 af            1 LIG        0.294586
      6 C6           94.266     48.778    267.522 ah            1 LIG        0.246480
      7 N1           95.567     48.959    267.945 ai            1 LIG       -0.479488
      8 C7           96.449     47.955    267.751 aj            1 LIG        0.165779
      9 C8           96.076     46.739    267.204 ak            1 LIG        0.172095
     10 N2           94.799     46.529    266.771 an            1 LIG       -0.489935
     11 C9           93.596     51.115    268.335 ao            1 LIG        0.075701
     12 C10          94.570     51.945    267.803 ap            1 LIG       -0.180518
     13 C11          94.859     53.167    268.385 aq            1 LIG       -0.135715
     14 C12          94.139     53.578    269.545 av            1 LIG       -0.217104
     15 C13          93.237     52.744    270.063 aw            1 LIG        0.368391
     16 C14          92.910     51.522    269.510 ax            1 LIG       -0.253734
     17 N3           90.290     48.123    266.319 ay            1 LIG       -0.561926
     18 C15          89.711     47.340    265.287 az            1 LIG        0.149793
     19 C16          90.420     47.107    264.093 bb            1 LIG        0.177185
     20 N4           89.918     46.435    263.043 bc            1 LIG       -0.466532
     21 C17          88.660     45.931    263.160 bd            1 LIG        0.238925
     22 C18          87.889     46.086    264.313 bf            1 LIG       -0.272778
     23 C19          88.425     46.797    265.399 bg            1 LIG       -0.025513
     24 S1           87.485     46.900    266.930 bh            1 LIG        0.919697
     25 O1           86.121     46.389    266.661 bj            1 LIG       -0.548815
     26 O2           87.670     48.224    267.485 bk            1 LIG       -0.548815
     27 C20          88.375     45.631    268.008 bl            1 LIG       -0.370283
     28 N5           92.560     53.115    271.253 bm            1 LIG       -0.913293
     29 H1           92.285     46.385    266.048 bn            1 LIG        0.165715
     30 H2           91.207     50.282    267.441 bo            1 LIG        0.158145
     31 H3           97.476     48.150    268.051 bp            1 LIG        0.057572
     32 H4           96.776     45.946    267.039 bq            1 LIG        0.058698
     33 H5           95.112     51.653    266.898 bs            1 LIG        0.150120
     34 H6           95.609     53.825    267.956 bt            1 LIG        0.140089
     35 H7           94.403     54.526    269.986 bu            1 LIG        0.133170
     36 H8           92.177     50.860    269.935 bv            1 LIG        0.131542
     37 H9           89.572     48.600    266.871 bw            1 LIG        0.378515
     38 H10          91.407     47.519    263.973 bx            1 LIG        0.091067
     39 H11          88.271     45.383    262.324 by            1 LIG        0.077327
     40 H12          86.893     45.642    264.377 bz            1 LIG        0.169362
     41 H13          87.840     45.514    268.956 cb            1 LIG        0.147320
     42 H14          89.389     45.989    268.177 ci            1 LIG        0.147320
     43 H15          88.386     44.684    267.491 cj            1 LIG        0.147320
     44 H16          91.944     52.465    271.720 ck            1 LIG        0.385319
     45 H17          92.833     53.967    271.726 cm            1 LIG        0.385319
@<TRIPOS>BOND
        1  1  4  2
        2  1  6  1
        3  1  11  1
        4  2  3  2
        5  2  5  1
        6  2  29  1
        7  3  4  1
        8  3  17  1
        9  4  30  1
        10  5  6  2
        11  5  10  1
        12  6  7  1
        13  7  8  2
        14  8  9  1
        15  8  31  1
        16  9  10  2
        17  9  32  1
        18  11  12  2
        19  11  16  1
        20  12  13  1
        21  12  33  1
        22  13  14  2
        23  13  34  1
        24  14  15  1
        25  14  35  1
        26  15  16  2
        27  15  28  1
        28  16  36  1
        29  17  18  1
        30  17  37  1
        31  18  19  2
        32  18  23  1
        33  19  20  1
        34  19  38  1
        35  20  21  2
        36  21  22  1
        37  21  39  1
        38  22  23  2
        39  22  40  1
        40  23  24  1
        41  24  25  2
        42  24  26  2
        43  24  27  1
        44  27  41  1
        45  27  42  1
        46  27  43  1
        47  28  44  1
        48  28  45  1
@<TRIPOS>SUBSTRUCTURE
       1 LIG             1 RESIDUE    0 **** ROOT      0
