@<TRIPOS>MOLECULE
LIG
65 70
SMALL
USER_CHARGES
@<TRIPOS>ATOM
      1 C1           -4.255     -3.103     13.571 aa            1 LIG        0.064917
      2 O1           -3.874     -2.353     14.717 ab            1 LIG       -0.351913
      3 C2           -2.526     -2.106     14.805 ad            1 LIG        0.191871
      4 C3           -1.750     -2.867     15.680 ae            1 LIG       -0.222178
      5 C4           -0.386     -2.611     15.815 af            1 LIG       -0.223331
      6 C5            0.222     -1.583     15.089 ah            1 LIG        0.271987
      7 N1            1.593     -1.349     15.306 ai            1 LIG       -0.565512
      8 C6            2.545     -0.469     14.754 aj            1 LIG        0.446758
      9 N2            2.218      0.355     13.719 ak            1 LIG       -0.556398
     10 C7            3.123      1.241     13.218 an            1 LIG        0.209026
     11 C8            4.421      1.304     13.717 ao            1 LIG       -0.118504
     12 N3            4.748      0.492     14.765 ap            1 LIG        0.063471
     13 C9            5.890      0.384     15.504 aq            1 LIG       -0.163289
     14 C10           5.572     -0.509     16.518 av            1 LIG        0.031625
     15 N4            4.382     -1.054     16.392 aw            1 LIG       -0.513546
     16 C11           3.833     -0.417     15.325 ax            1 LIG        0.172789
     17 C12           2.656      2.156     12.134 ay            1 LIG        0.114135
     18 C13           3.557      2.628     11.167 az            1 LIG       -0.181219
     19 C14           3.129      3.450     10.128 bb            1 LIG       -0.133649
     20 C15           1.788      3.808     10.032 bc            1 LIG       -0.175047
     21 C16           0.866      3.371     10.989 bd            1 LIG        0.013259
     22 C17           1.314      2.558     12.042 bf            1 LIG       -0.248716
     23 C18          -0.588      3.730     10.843 bg            1 LIG        0.701456
     24 O2           -1.109      3.702      9.726 bh            1 LIG       -0.605477
     25 N5           -1.218      4.096     11.983 bj            1 LIG       -0.496693
     26 C19          -2.555      4.507     12.131 bk            1 LIG        0.210173
     27 C20          -3.594      4.063     11.302 bl            1 LIG       -0.208705
     28 C21          -4.891      4.524     11.503 bm            1 LIG       -0.191639
     29 C22          -5.179      5.421     12.541 bn            1 LIG        0.099355
     30 C23          -4.138      5.832     13.387 bo            1 LIG       -0.191639
     31 C24          -2.838      5.382     13.181 bp            1 LIG       -0.208705
     32 C25          -6.580      5.915     12.755 bq            1 LIG        0.061698
     33 C26          -7.800      5.576     12.201 bs            1 LIG       -0.220106
     34 C27          -8.734      6.407     12.827 bt            1 LIG        0.022421
     35 N6           -8.171      7.210     13.704 bu            1 LIG       -0.423067
     36 N7           -6.862      6.907     13.657 bv            1 LIG       -0.020626
     37 C28          -0.566     -0.826     14.211 bw            1 LIG       -0.299723
     38 C29          -1.939     -1.076     14.058 bx            1 LIG        0.202177
     39 O3           -2.762     -0.353     13.212 by            1 LIG       -0.346928
     40 C30          -2.203      0.676     12.403 bz            1 LIG        0.061375
     41 H1           -3.732     -4.059     13.535 cb            1 LIG        0.055625
     42 H2           -4.049     -2.559     12.649 ci            1 LIG        0.055625
     43 H3           -5.326     -3.306     13.606 cj            1 LIG        0.055625
     44 H4           -2.212     -3.652     16.259 ck            1 LIG        0.155998
     45 H5            0.191     -3.211     16.503 cm            1 LIG        0.145028
     46 H6            2.026     -1.889     16.045 cn            1 LIG        0.365324
     47 H7            5.173      2.000     13.370 ct            1 LIG        0.119966
     48 H8            6.767      0.972     15.290 cw            1 LIG        0.150283
     49 H9            6.210     -0.834     17.330 da            1 LIG        0.150789
     50 H10           4.593      2.329     11.198 db            1 LIG        0.162732
     51 H11           3.832      3.789      9.380 dc            1 LIG        0.154436
     52 H12           1.453      4.421      9.206 dd            1 LIG        0.170550
     53 H13           0.610      2.188     12.774 de            1 LIG        0.136843
     54 H14          -0.626      4.177     12.793 df            1 LIG        0.300308
     55 H15          -3.414      3.368     10.495 dg            1 LIG        0.163457
     56 H16          -5.683      4.187     10.851 dh            1 LIG        0.144288
     57 H17          -4.348      6.514     14.199 di            1 LIG        0.144288
     58 H18          -2.054      5.726     13.840 dj            1 LIG        0.163457
     59 H19          -7.994      4.827     11.444 dk            1 LIG        0.140487
     60 H20          -9.802      6.418     12.638 dl            1 LIG        0.143644
     61 H21          -6.165      7.374     14.237 dm            1 LIG        0.281528
     62 H22          -0.127     -0.027     13.648 dn            1 LIG        0.194734
     63 H23          -1.423      0.292     11.743 do            1 LIG        0.057700
     64 H24          -1.794      1.477     13.020 dp            1 LIG        0.057700
     65 H25          -2.983      1.108     11.776 dq            1 LIG        0.057700
@<TRIPOS>BOND
        1  1  2  1
        2  1  41  1
        3  1  42  1
        4  1  43  1
        5  2  3  1
        6  3  4  2
        7  3  38  1
        8  4  5  1
        9  4  44  1
        10  5  6  2
        11  5  45  1
        12  6  7  1
        13  6  37  1
        14  7  8  1
        15  7  46  1
        16  8  9  2
        17  8  16  1
        18  9  10  1
        19  10  11  2
        20  10  17  1
        21  11  12  1
        22  11  47  1
        23  12  13  1
        24  12  16  1
        25  13  14  2
        26  13  48  1
        27  14  15  1
        28  14  49  1
        29  15  16  2
        30  17  18  2
        31  17  22  1
        32  18  19  1
        33  18  50  1
        34  19  20  2
        35  19  51  1
        36  20  21  1
        37  20  52  1
        38  21  22  2
        39  21  23  1
        40  22  53  1
        41  23  24  2
        42  23  25  1
        43  25  26  1
        44  25  54  1
        45  26  27  2
        46  26  31  1
        47  27  28  1
        48  27  55  1
        49  28  29  2
        50  28  56  1
        51  29  30  1
        52  29  32  1
        53  30  31  2
        54  30  57  1
        55  31  58  1
        56  32  36  1
        57  32  33  2
        58  33  34  1
        59  33  59  1
        60  34  60  1
        61  34  35  2
        62  35  36  1
        63  36  61  1
        64  37  38  2
        65  37  62  1
        66  38  39  1
        67  39  40  1
        68  40  63  1
        69  40  64  1
        70  40  65  1
@<TRIPOS>SUBSTRUCTURE
       1 LIG             1 RESIDUE    0 **** ROOT      0
