@<TRIPOS>MOLECULE
LIG
48 51
SMALL
USER_CHARGES
@<TRIPOS>ATOM
      1 N1           14.316     -4.004      6.706 aa            1 LIG       -0.696163
      2 C1           14.680     -3.052      5.557 ab            1 LIG        0.022351
      3 C2           14.901     -3.777      4.203 ad            1 LIG        0.242150
      4 C3           15.079     -5.320      4.256 ae            1 LIG       -0.071859
      5 C4           15.213     -5.912      2.839 af            1 LIG       -0.055709
      6 C5           14.100     -5.414      1.884 ah            1 LIG        0.045755
      7 C6           12.707     -6.066      2.133 ai            1 LIG        0.126051
      8 C7           12.752     -7.591      2.036 aj            1 LIG        0.071432
      9 C8           12.319     -8.377      3.105 ak            1 LIG       -0.194189
     10 C9           12.404     -9.765      3.022 an            1 LIG       -0.133717
     11 C10          12.915    -10.367      1.874 ao            1 LIG       -0.133007
     12 C11          13.331     -9.591      0.800 ap            1 LIG       -0.133717
     13 C12          13.251     -8.205      0.881 aq            1 LIG       -0.194189
     14 N2           11.704     -5.510      1.225 av            1 LIG       -0.549449
     15 C13          11.787     -4.178      0.784 aw            1 LIG        0.238112
     16 C14          10.780     -3.711     -0.057 ax            1 LIG       -0.209395
     17 C15          10.820     -2.410     -0.545 ay            1 LIG       -0.177006
     18 C16          11.859     -1.553     -0.181 az            1 LIG       -0.081106
     19 C17          11.907     -0.136     -0.742 bb            1 LIG        0.689060
     20 F1           12.533     -0.157     -1.919 bc            1 LIG       -0.225251
     21 F2           10.673      0.330     -0.928 bd            1 LIG       -0.225251
     22 F3           12.559      0.695      0.071 bf            1 LIG       -0.225251
     23 C18          12.855     -2.018      0.685 bg            1 LIG       -0.238600
     24 C19          12.860     -3.341      1.143 bh            1 LIG       -0.025480
     25 C20          14.013     -3.873      1.982 bj            1 LIG        0.267656
     26 O1           13.805     -3.474      3.338 bk            1 LIG       -0.469530
     27 H1           14.108     -3.475      7.537 bl            1 LIG        0.416959
     28 H2           15.083     -4.626      6.912 bm            1 LIG        0.416959
     29 H3           13.857     -2.337      5.519 bn            1 LIG        0.139841
     30 H4           15.581     -2.539      5.900 bo            1 LIG        0.139841
     31 H5           15.812     -3.332      3.791 bp            1 LIG        0.044164
     32 H6           15.961     -5.587      4.837 bq            1 LIG        0.025502
     33 H7           14.230     -5.794      4.751 bs            1 LIG        0.025502
     34 H8           16.180     -5.622      2.422 bt            1 LIG        0.040831
     35 H9           15.238     -7.000      2.894 bu            1 LIG        0.040831
     36 H10          14.418     -5.631      0.864 bv            1 LIG        0.013524
     37 H11          12.378     -5.817      3.145 bw            1 LIG        0.042861
     38 H12          11.928     -7.918      4.002 bx            1 LIG        0.141712
     39 H13          12.070    -10.373      3.851 by            1 LIG        0.151452
     40 H14          12.957    -11.445      1.808 bz            1 LIG        0.153147
     41 H15          13.701    -10.061     -0.101 cb            1 LIG        0.151452
     42 H16          13.563     -7.608      0.038 ci            1 LIG        0.141712
     43 H17          10.786     -5.911      1.375 cj            1 LIG        0.341645
     44 H18           9.955     -4.349     -0.332 ck            1 LIG        0.164055
     45 H19          10.033     -2.072     -1.205 cm            1 LIG        0.173247
     46 H20          13.674     -1.366      0.957 cn            1 LIG        0.154522
     47 H21          14.938     -3.436      1.597 ct            1 LIG       -0.000413
     48 H22          13.505     -4.551      6.462 cw            1 LIG        0.416959
@<TRIPOS>BOND
        1  1  2  1
        2  1  27  1
        3  1  28  1
        4  1  48  1
        5  2  3  1
        6  2  29  1
        7  2  30  1
        8  3  4  1
        9  3  26  1
        10  3  31  1
        11  4  5  1
        12  4  32  1
        13  4  33  1
        14  5  6  1
        15  5  34  1
        16  5  35  1
        17  6  7  1
        18  6  25  1
        19  6  36  1
        20  7  8  1
        21  7  14  1
        22  7  37  1
        23  8  9  2
        24  8  13  1
        25  9  10  1
        26  9  38  1
        27  10  11  2
        28  10  39  1
        29  11  12  1
        30  11  40  1
        31  12  13  2
        32  12  41  1
        33  13  42  1
        34  14  15  1
        35  14  43  1
        36  15  16  2
        37  15  24  1
        38  16  17  1
        39  16  44  1
        40  17  18  2
        41  17  45  1
        42  18  19  1
        43  18  23  1
        44  19  20  1
        45  19  21  1
        46  19  22  1
        47  23  24  2
        48  23  46  1
        49  24  25  1
        50  25  26  1
        51  25  47  1
@<TRIPOS>SUBSTRUCTURE
       1 LIG             1 RESIDUE    0 **** ROOT      0
