@<TRIPOS>MOLECULE
LIG
61 64
SMALL
USER_CHARGES
@<TRIPOS>ATOM
      1 C1           25.372     31.222     46.664 aa            1 LIG       -0.337122
      2 N1           24.229     31.676     47.597 ab            1 LIG       -0.026813
      3 C2           24.160     30.825     48.881 ad            1 LIG       -0.337122
      4 C3           24.181     33.209     47.825 ae            1 LIG       -0.030011
      5 C4           25.404     33.808     48.565 af            1 LIG       -0.070788
      6 C5           25.449     33.618     50.093 ah            1 LIG        0.223165
      7 O1           24.150     33.827     50.636 ai            1 LIG       -0.411392
      8 C6           23.971     33.672     51.993 aj            1 LIG        0.083240
      9 C7           24.955     33.901     52.969 ak            1 LIG        0.214338
     10 N2           24.719     33.745     54.298 an            1 LIG       -0.552968
     11 C8           23.464     33.351     54.661 ao            1 LIG        0.603584
     12 N3           22.444     33.132     53.785 ap            1 LIG       -0.552968
     13 C9           22.713     33.299     52.467 aq            1 LIG        0.214338
     14 C10          23.207     33.041     56.108 av            1 LIG       -0.027065
     15 C11          24.246     33.069     57.056 aw            1 LIG       -0.165824
     16 C12          24.033     32.678     58.375 ax            1 LIG       -0.133660
     17 C13          22.772     32.248     58.776 ay            1 LIG       -0.186480
     18 C14          21.712     32.236     57.873 az            1 LIG        0.092480
     19 C15          20.320     31.811     58.328 bb            1 LIG        0.028000
     20 N4           19.967     30.434     57.935 bc            1 LIG        0.041841
     21 N5           19.420     30.285     56.658 bd            1 LIG       -0.395405
     22 C16          19.047     29.136     56.190 bf            1 LIG        0.215969
     23 C17          19.294     27.983     57.043 bg            1 LIG       -0.097154
     24 C18          19.847     28.117     58.271 bh            1 LIG       -0.194386
     25 C19          20.207     29.408     58.828 bj            1 LIG        0.560211
     26 O2           20.647     29.528     59.974 bk            1 LIG       -0.623568
     27 C20          18.392     28.988     54.865 bl            1 LIG        0.110035
     28 C21          18.247     27.742     54.231 bm            1 LIG       -0.195539
     29 C22          17.589     27.634     53.005 bn            1 LIG       -0.133487
     30 C23          17.056     28.768     52.396 bo            1 LIG       -0.202792
     31 C24          17.191     30.012     53.006 bp            1 LIG        0.223307
     32 F1           16.672     31.119     52.423 bq            1 LIG       -0.169340
     33 C25          17.857     30.121     54.225 bs            1 LIG       -0.258576
     34 C26          21.931     32.648     56.555 bt            1 LIG       -0.225135
     35 H1           25.308     31.811     45.747 bu            1 LIG        0.174864
     36 H2           25.224     30.160     46.455 bv            1 LIG        0.174864
     37 H3           26.319     31.388     47.176 bw            1 LIG        0.174864
     38 H4           23.408     31.266     49.538 bx            1 LIG        0.174864
     39 H5           25.145     30.811     49.344 by            1 LIG        0.174864
     40 H6           23.871     29.821     48.575 bz            1 LIG        0.174864
     41 H7           24.097     33.621     46.818 cb            1 LIG        0.123309
     42 H8           23.236     33.413     48.336 ci            1 LIG        0.123309
     43 H9           26.338     33.460     48.128 cj            1 LIG        0.053118
     44 H10          25.394     34.882     48.378 ck            1 LIG        0.053118
     45 H11          25.812     32.625     50.357 cm            1 LIG        0.032203
     46 H12          26.166     34.327     50.507 cn            1 LIG        0.032203
     47 H13          25.952     34.220     52.707 ct            1 LIG        0.068133
     48 H14          21.887     33.126     51.788 cw            1 LIG        0.068133
     49 H15          25.244     33.374     56.776 da            1 LIG        0.165958
     50 H16          24.851     32.701     59.081 db            1 LIG        0.155381
     51 H17          22.620     31.925     59.795 dc            1 LIG        0.156343
     52 H18          20.223     31.963     59.407 dd            1 LIG        0.083830
     53 H19          19.589     32.498     57.900 de            1 LIG        0.083830
     54 H20          19.040     26.981     56.732 df            1 LIG        0.118972
     55 H21          20.018     27.241     58.879 dg            1 LIG        0.136163
     56 H22          18.647     26.835     54.659 dh            1 LIG        0.151747
     57 H23          17.497     26.669     52.529 di            1 LIG        0.160493
     58 H24          16.539     28.685     51.452 dj            1 LIG        0.170613
     59 H25          17.934     31.100     54.676 dk            1 LIG        0.183749
     60 H26          21.098     32.618     55.868 dl            1 LIG        0.199302
     61 H27          23.373     31.468     47.097 dm            1 LIG        0.347993
@<TRIPOS>BOND
        1  1  2  1
        2  1  35  1
        3  1  36  1
        4  1  37  1
        5  2  3  1
        6  2  4  1
        7  2  61  1
        8  3  38  1
        9  3  39  1
        10  3  40  1
        11  4  5  1
        12  4  41  1
        13  4  42  1
        14  5  6  1
        15  5  43  1
        16  5  44  1
        17  6  7  1
        18  6  45  1
        19  6  46  1
        20  7  8  1
        21  8  9  2
        22  8  13  1
        23  9  10  1
        24  9  47  1
        25  10  11  2
        26  11  12  1
        27  11  14  1
        28  12  13  2
        29  13  48  1
        30  14  15  2
        31  14  34  1
        32  15  16  1
        33  15  49  1
        34  16  17  2
        35  16  50  1
        36  17  18  1
        37  17  51  1
        38  18  19  1
        39  18  34  2
        40  19  20  1
        41  19  52  1
        42  19  53  1
        43  20  21  1
        44  20  25  1
        45  21  22  2
        46  22  23  1
        47  22  27  1
        48  23  24  2
        49  23  54  1
        50  24  25  1
        51  24  55  1
        52  25  26  2
        53  27  28  2
        54  27  33  1
        55  28  29  1
        56  28  56  1
        57  29  30  2
        58  29  57  1
        59  30  31  1
        60  30  58  1
        61  31  32  1
        62  31  33  2
        63  33  59  1
        64  34  60  1
@<TRIPOS>SUBSTRUCTURE
       1 LIG             1 RESIDUE    0 **** ROOT      0
