@<TRIPOS>MOLECULE
LIG
47 50
SMALL
USER_CHARGES
@<TRIPOS>ATOM
      1 C1           92.574     47.334    266.457 aa            1 LIG       -0.307715
      2 C2           91.632     48.317    266.674 ab            1 LIG        0.283135
      3 C3           91.963     49.517    267.300 ad            1 LIG       -0.240828
      4 C4           93.276     49.797    267.678 ae            1 LIG        0.001181
      5 C5           93.896     47.536    266.905 af            1 LIG        0.295218
      6 C6           94.273     48.787    267.512 ah            1 LIG        0.246740
      7 N1           95.567     48.960    267.940 ai            1 LIG       -0.481131
      8 C7           96.457     47.954    267.746 aj            1 LIG        0.166303
      9 C8           96.062     46.736    267.206 ak            1 LIG        0.172335
     10 N2           94.801     46.534    266.772 an            1 LIG       -0.488004
     11 N3           90.286     48.128    266.323 ao            1 LIG       -0.560899
     12 C9           89.724     47.348    265.293 ap            1 LIG        0.149928
     13 C10          90.412     47.128    264.093 aq            1 LIG        0.177669
     14 N4           89.911     46.442    263.035 av            1 LIG       -0.465935
     15 C11          88.662     45.949    263.152 aw            1 LIG        0.239457
     16 C12          87.884     46.096    264.301 ax            1 LIG       -0.272604
     17 C13          88.419     46.790    265.398 ay            1 LIG       -0.024818
     18 S1           87.485     46.897    266.928 az            1 LIG        0.920768
     19 O1           86.127     46.373    266.668 bb            1 LIG       -0.548498
     20 O2           87.669     48.234    267.473 bc            1 LIG       -0.548498
     21 C14          88.381     45.674    268.058 bd            1 LIG       -0.370466
     22 C15          93.588     51.113    268.340 bf            1 LIG        0.078432
     23 C16          92.884     51.478    269.498 bg            1 LIG       -0.175519
     24 C17          93.203     52.696    270.134 bh            1 LIG       -0.136613
     25 C18          94.189     53.526    269.628 bj            1 LIG       -0.219658
     26 C19          94.828     53.196    268.434 bk            1 LIG        0.267100
     27 C20          94.551     51.970    267.825 bl            1 LIG       -0.243508
     28 O3           95.731     53.971    267.791 bm            1 LIG       -0.364826
     29 C21          96.057     55.265    268.338 bn            1 LIG        0.067555
     30 H1           92.260     46.383    266.044 bo            1 LIG        0.167581
     31 H2           91.217     50.289    267.438 bp            1 LIG        0.161847
     32 H3           97.471     48.151    268.043 bq            1 LIG        0.058474
     33 H4           96.771     45.943    267.016 bs            1 LIG        0.060195
     34 H5           89.546     48.593    266.859 bt            1 LIG        0.380062
     35 H6           91.406     47.527    263.986 bu            1 LIG        0.090767
     36 H7           88.272     45.386    262.325 bv            1 LIG        0.078109
     37 H8           86.889     45.643    264.395 bw            1 LIG        0.169855
     38 H9           87.867     45.640    269.006 bx            1 LIG        0.147989
     39 H10          89.410     46.006    268.153 by            1 LIG        0.147989
     40 H11          88.346     44.703    267.572 bz            1 LIG        0.147989
     41 H12          92.160     50.813    269.949 cb            1 LIG        0.158285
     42 H13          92.682     52.947    271.056 ci            1 LIG        0.146775
     43 H14          94.358     54.474    270.117 cj            1 LIG        0.145146
     44 H15          95.035     51.717    266.895 ck            1 LIG        0.158564
     45 H16          96.783     55.769    267.697 cm            1 LIG        0.054692
     46 H17          96.511     55.156    269.324 cn            1 LIG        0.054692
     47 H18          95.187     55.919    268.427 ct            1 LIG        0.054692
@<TRIPOS>BOND
        1  1  2  2
        2  1  5  1
        3  1  30  1
        4  2  3  1
        5  2  11  1
        6  3  4  2
        7  3  31  1
        8  4  6  1
        9  4  22  1
        10  5  6  2
        11  5  10  1
        12  6  7  1
        13  7  8  2
        14  8  9  1
        15  8  32  1
        16  9  10  2
        17  9  33  1
        18  11  12  1
        19  11  34  1
        20  12  13  2
        21  12  17  1
        22  13  14  1
        23  13  35  1
        24  14  15  2
        25  15  16  1
        26  15  36  1
        27  16  17  2
        28  16  37  1
        29  17  18  1
        30  18  19  2
        31  18  20  2
        32  18  21  1
        33  21  38  1
        34  21  39  1
        35  21  40  1
        36  22  23  2
        37  22  27  1
        38  23  24  1
        39  23  41  1
        40  24  25  2
        41  24  42  1
        42  25  26  1
        43  25  43  1
        44  26  27  2
        45  26  28  1
        46  27  44  1
        47  28  29  1
        48  29  45  1
        49  29  46  1
        50  29  47  1
@<TRIPOS>SUBSTRUCTURE
       1 LIG             1 RESIDUE    0 **** ROOT      0
