@<TRIPOS>MOLECULE
LIG
56 60
SMALL
USER_CHARGES
@<TRIPOS>ATOM
      1 C1           93.309     49.802    267.671 aa            1 LIG        0.000425
      2 C2           92.566     47.346    266.476 ab            1 LIG       -0.310068
      3 C3           91.614     48.343    266.676 ad            1 LIG        0.281947
      4 C4           91.985     49.542    267.284 ae            1 LIG       -0.243496
      5 C5           93.898     47.537    266.903 af            1 LIG        0.294462
      6 C6           94.282     48.778    267.499 ah            1 LIG        0.245262
      7 N1           95.569     48.960    267.927 ai            1 LIG       -0.485471
      8 C7           96.451     47.952    267.739 aj            1 LIG        0.164308
      9 C8           96.072     46.744    267.175 ak            1 LIG        0.171149
     10 N2           94.797     46.529    266.752 an            1 LIG       -0.490857
     11 C9           93.656     51.088    268.320 ao            1 LIG        0.066750
     12 C10          94.596     51.964    267.755 ap            1 LIG       -0.182722
     13 C11          94.880     53.191    268.351 aq            1 LIG       -0.195532
     14 C12          93.075     51.392    269.538 av            1 LIG       -0.234052
     15 N3           90.276     48.133    266.319 aw            1 LIG       -0.561465
     16 C13          89.718     47.351    265.292 ax            1 LIG        0.150005
     17 C14          90.421     47.128    264.100 ay            1 LIG        0.177761
     18 N4           89.918     46.436    263.047 az            1 LIG       -0.466474
     19 C15          88.663     45.939    263.166 bb            1 LIG        0.239119
     20 C16          87.890     46.097    264.315 bc            1 LIG       -0.272682
     21 C17          88.425     46.805    265.399 bd            1 LIG       -0.024888
     22 S1           87.483     46.896    266.927 bf            1 LIG        0.918806
     23 O1           86.138     46.367    266.667 bg            1 LIG       -0.548876
     24 O2           87.648     48.241    267.479 bh            1 LIG       -0.548876
     25 C18          88.383     45.676    268.045 bj            1 LIG       -0.369659
     26 C19          93.288     52.642    270.108 bk            1 LIG        0.065264
     27 C20          94.185     53.556    269.507 bl            1 LIG        0.069463
     28 C21          94.174     54.726    270.350 bm            1 LIG       -0.220662
     29 C22          93.280     54.476    271.370 bn            1 LIG       -0.136475
     30 N5           92.756     53.221    271.252 bo            1 LIG       -0.012247
     31 C23          91.810     52.582    272.167 bp            1 LIG        0.005288
     32 C24          90.390     52.340    271.585 bq            1 LIG        0.028395
     33 C25          90.228     52.274    270.052 bs            1 LIG       -0.263314
     34 H1           92.289     46.404    266.027 bt            1 LIG        0.164278
     35 H2           91.225     50.293    267.455 bu            1 LIG        0.159852
     36 H3           97.471     48.140    268.045 bv            1 LIG        0.053718
     37 H4           96.773     45.943    267.020 bw            1 LIG        0.057109
     38 H5           95.108     51.678    266.851 bx            1 LIG        0.134244
     39 H6           95.626     53.851    267.918 by            1 LIG        0.138352
     40 H7           92.438     50.674    270.017 bz            1 LIG        0.158060
     41 H8           89.589     48.624    266.881 cb            1 LIG        0.378577
     42 H9           91.423     47.503    263.971 ci            1 LIG        0.091257
     43 H10          88.278     45.385    262.324 cj            1 LIG        0.077280
     44 H11          86.903     45.656    264.362 ck            1 LIG        0.168113
     45 H12          87.870     45.635    269.004 cm            1 LIG        0.147716
     46 H13          89.411     46.012    268.181 cn            1 LIG        0.147716
     47 H14          88.365     44.692    267.579 ct            1 LIG        0.147716
     48 H15          94.759     55.605    270.236 cw            1 LIG        0.141461
     49 H16          92.992     55.104    272.207 da            1 LIG        0.146922
     50 H17          91.741     53.184    273.080 db            1 LIG        0.050912
     51 H18          92.255     51.638    272.482 dc            1 LIG        0.050912
     52 H19          89.724     53.120    271.942 dd            1 LIG        0.028745
     53 H20          90.042     51.421    272.028 de            1 LIG        0.028745
     54 H21          89.196     52.169    269.750 df            1 LIG        0.072575
     55 H22          90.689     51.407    269.630 dg            1 LIG        0.072575
     56 H23          90.653     53.148    269.573 dh            1 LIG        0.072575
@<TRIPOS>BOND
        1  1  4  2
        2  1  6  1
        3  1  11  1
        4  2  3  2
        5  2  5  1
        6  2  34  1
        7  3  4  1
        8  3  15  1
        9  4  35  1
        10  5  6  2
        11  5  10  1
        12  6  7  1
        13  7  8  2
        14  8  9  1
        15  8  36  1
        16  9  10  2
        17  9  37  1
        18  11  12  2
        19  11  14  1
        20  12  13  1
        21  12  38  1
        22  13  27  2
        23  13  39  1
        24  14  26  2
        25  14  40  1
        26  15  16  1
        27  15  41  1
        28  16  17  2
        29  16  21  1
        30  17  18  1
        31  17  42  1
        32  18  19  2
        33  19  20  1
        34  19  43  1
        35  20  21  2
        36  20  44  1
        37  21  22  1
        38  22  23  2
        39  22  24  2
        40  22  25  1
        41  25  45  1
        42  25  46  1
        43  25  47  1
        44  26  27  1
        45  26  30  1
        46  27  28  1
        47  28  29  2
        48  28  48  1
        49  29  30  1
        50  29  49  1
        51  30  31  1
        52  31  32  1
        53  31  50  1
        54  31  51  1
        55  32  33  1
        56  32  52  1
        57  32  53  1
        58  33  54  1
        59  33  55  1
        60  33  56  1
@<TRIPOS>SUBSTRUCTURE
       1 LIG             1 RESIDUE    0 **** ROOT      0
