@<TRIPOS>MOLECULE
LIG
48 52
SMALL
USER_CHARGES
@<TRIPOS>ATOM
      1 N1           94.801     46.521    266.783 aa            1 LIG       -0.490886
      2 N2           95.560     48.962    267.950 ab            1 LIG       -0.482316
      3 C1           96.451     47.956    267.762 ad            1 LIG        0.165345
      4 C2           96.069     46.740    267.207 ae            1 LIG        0.172297
      5 C3           94.269     48.775    267.527 af            1 LIG        0.244666
      6 C4           93.897     47.529    266.926 ah            1 LIG        0.294623
      7 C5           92.570     47.332    266.486 ai            1 LIG       -0.311337
      8 C6           91.613     48.325    266.675 aj            1 LIG        0.280802
      9 C7           91.969     49.527    267.284 ak            1 LIG       -0.245135
     10 C8           93.285     49.794    267.697 an            1 LIG        0.000658
     11 C9           93.589     51.103    268.328 ao            1 LIG        0.065016
     12 N3           90.278     48.120    266.312 ap            1 LIG       -0.561278
     13 C10          94.571     51.947    267.783 aq            1 LIG       -0.168203
     14 C11          94.859     53.186    268.375 av            1 LIG       -0.210258
     15 C12          92.912     51.498    269.495 aw            1 LIG       -0.232403
     16 C13          93.201     52.729    270.065 ax            1 LIG        0.005185
     17 C14          94.131     53.557    269.503 ay            1 LIG        0.186823
     18 O1           94.332     54.728    270.194 az            1 LIG       -0.339642
     19 C15          93.359     54.730    271.248 bb            1 LIG        0.126351
     20 C16          92.769     53.364    271.346 bc            1 LIG        0.001268
     21 C17          89.715     47.342    265.285 bd            1 LIG        0.147687
     22 C18          90.417     47.127    264.090 bf            1 LIG        0.179277
     23 N4           89.911     46.441    263.039 bg            1 LIG       -0.464933
     24 C19          88.658     45.933    263.164 bh            1 LIG        0.240771
     25 C20          87.890     46.084    264.316 bj            1 LIG       -0.271654
     26 C21          88.424     46.799    265.396 bk            1 LIG       -0.024607
     27 S1           87.481     46.901    266.918 bl            1 LIG        0.918725
     28 O2           86.128     46.403    266.662 bm            1 LIG       -0.548115
     29 O3           87.675     48.244    267.479 bn            1 LIG       -0.548115
     30 C22          88.372     45.661    268.018 bo            1 LIG       -0.370238
     31 H1           97.473     48.149    268.054 bp            1 LIG        0.058086
     32 H2           96.778     45.943    267.049 bq            1 LIG        0.059348
     33 H3           92.290     46.384    266.049 bs            1 LIG        0.161884
     34 H4           91.213     50.282    267.433 bt            1 LIG        0.158374
     35 H5           89.579     48.597    266.875 bu            1 LIG        0.373867
     36 H6           95.113     51.648    266.896 bv            1 LIG        0.170947
     37 H7           95.621     53.824    267.954 bw            1 LIG        0.158534
     38 H8           92.200     50.836    269.950 bx            1 LIG        0.145662
     39 H9           92.572     55.440    270.952 by            1 LIG        0.047055
     40 H10          93.777     55.104    272.188 bz            1 LIG        0.047055
     41 H11          91.689     53.387    271.516 cb            1 LIG        0.031798
     42 H12          93.219     52.822    272.185 ci            1 LIG        0.031798
     43 H13          91.407     47.528    263.964 cj            1 LIG        0.090695
     44 H14          88.272     45.381    262.322 ck            1 LIG        0.079571
     45 H15          86.903     45.638    264.376 cm            1 LIG        0.179428
     46 H16          87.853     45.606    268.972 cn            1 LIG        0.148508
     47 H17          89.397     46.000    268.159 ct            1 LIG        0.148508
     48 H18          88.356     44.689    267.527 cw            1 LIG        0.148508
@<TRIPOS>BOND
        1  1  4  2
        2  1  6  1
        3  2  3  2
        4  2  5  1
        5  3  4  1
        6  3  31  1
        7  4  32  1
        8  5  6  2
        9  5  10  1
        10  6  7  1
        11  7  8  2
        12  7  33  1
        13  8  9  1
        14  8  12  1
        15  9  10  2
        16  9  34  1
        17  10  11  1
        18  11  13  2
        19  11  15  1
        20  12  21  1
        21  12  35  1
        22  13  14  1
        23  13  36  1
        24  14  17  2
        25  14  37  1
        26  15  16  2
        27  15  38  1
        28  16  17  1
        29  16  20  1
        30  17  18  1
        31  18  19  1
        32  19  20  1
        33  19  39  1
        34  19  40  1
        35  20  41  1
        36  20  42  1
        37  21  22  2
        38  21  26  1
        39  22  23  1
        40  22  43  1
        41  23  24  2
        42  24  25  1
        43  24  44  1
        44  25  26  2
        45  25  45  1
        46  26  27  1
        47  27  28  2
        48  27  29  2
        49  27  30  1
        50  30  46  1
        51  30  47  1
        52  30  48  1
@<TRIPOS>SUBSTRUCTURE
       1 LIG             1 RESIDUE    0 **** ROOT      0
