@<TRIPOS>MOLECULE
LIG
31 33
SMALL
USER_CHARGES
@<TRIPOS>ATOM
      1 C1          -15.352    -19.221    -25.968 aa            1 LIG        0.092164
      2 C2          -14.653    -19.708    -27.082 ab            1 LIG       -0.185224
      3 C3          -15.855    -20.123    -25.024 ad            1 LIG       -0.185224
      4 C4          -14.454    -21.064    -27.248 ae            1 LIG       -0.211060
      5 C5          -15.636    -21.485    -25.184 af            1 LIG       -0.211060
      6 N1          -15.053    -16.945    -26.687 ah            1 LIG       -0.502129
      7 C6          -14.935    -21.963    -26.299 ai            1 LIG        0.273239
      8 C7          -15.216    -15.561    -26.593 aj            1 LIG        0.235722
      9 C8          -15.903    -15.006    -25.504 ak            1 LIG       -0.056653
     10 C9          -15.446    -12.819    -26.360 an            1 LIG       -0.137493
     11 C10         -14.777    -13.355    -27.453 ao            1 LIG       -0.130804
     12 C11         -16.020    -13.623    -25.381 ap            1 LIG       -0.177067
     13 C12         -14.677    -14.736    -27.593 aq            1 LIG       -0.197281
     14 C13         -16.531    -15.939    -24.489 av            1 LIG        0.629354
     15 N2          -16.258    -17.244    -24.767 aw            1 LIG       -0.413097
     16 C14         -15.532    -17.767    -25.820 ax            1 LIG        0.331946
     17 O1          -17.241    -15.610    -23.537 ay            1 LIG       -0.637112
     18 H1          -14.252    -19.046    -27.838 az            1 LIG        0.163641
     19 H2          -16.398    -19.794    -24.151 bb            1 LIG        0.163641
     20 H3          -13.894    -21.408    -28.105 bc            1 LIG        0.160396
     21 H4          -15.990    -22.163    -24.421 bd            1 LIG        0.160396
     22 H5          -14.360    -12.689    -28.196 bf            1 LIG        0.148019
     23 H6          -16.546    -13.171    -24.549 bg            1 LIG        0.168483
     24 H7          -16.735    -17.892    -24.154 bh            1 LIG        0.321276
     25 H8          -14.194    -15.175    -28.454 bj            1 LIG        0.158347
     26 H9          -15.532    -11.748    -26.252 bk            1 LIG        0.147591
     27 O2          -14.722    -23.301    -26.457 bl            1 LIG       -0.352335
     28 C15         -15.334    -24.045    -25.308 bm            1 LIG        0.063500
     29 H10         -15.164    -25.114    -25.435 bn            1 LIG        0.059609
     30 H11         -14.878    -23.713    -24.375 bo            1 LIG        0.059609
     31 H12         -16.406    -23.850    -25.278 bp            1 LIG        0.059609
@<TRIPOS>BOND
        1  1  2  2
        2  1  3  1
        3  1  16  1
        4  2  4  1
        5  2  18  1
        6  3  5  2
        7  3  19  1
        8  4  7  2
        9  4  20  1
        10  5  7  1
        11  5  21  1
        12  6  8  1
        13  6  16  2
        14  7  27  1
        15  8  9  2
        16  8  13  1
        17  9  12  1
        18  9  14  1
        19  10  11  1
        20  10  12  2
        21  10  26  1
        22  11  13  2
        23  11  22  1
        24  12  23  1
        25  13  25  1
        26  14  15  1
        27  14  17  2
        28  15  16  1
        29  15  24  1
        30  27  28  1
        31  28  29  1
        32  28  30  1
        33  28  31  1
@<TRIPOS>SUBSTRUCTURE
       1 LIG             1 RESIDUE    0 **** ROOT      0
