@<TRIPOS>MOLECULE
LIG
49 52
SMALL
USER_CHARGES
@<TRIPOS>ATOM
      1 C1          -14.498    -14.808    -27.604 aa            1 LIG        0.098979
      2 C2          -15.086    -15.615    -26.612 ab            1 LIG        0.173454
      3 C3          -14.578    -13.419    -27.491 ad            1 LIG       -0.262025
      4 C4          -15.797    -15.018    -25.562 ae            1 LIG       -0.054720
      5 N1          -14.950    -17.016    -26.669 af            1 LIG       -0.495716
      6 C5          -15.260    -12.830    -26.430 ah            1 LIG        0.223627
      7 C6          -15.887    -13.624    -25.465 ai            1 LIG       -0.252042
      8 C7          -16.471    -15.921    -24.549 aj            1 LIG        0.602797
      9 N2          -16.152    -17.233    -24.741 ak            1 LIG       -0.401233
     10 O1          -17.246    -15.561    -23.663 an            1 LIG       -0.581770
     11 C8          -15.432    -17.811    -25.771 ao            1 LIG        0.325924
     12 C9          -15.274    -19.288    -25.845 ap            1 LIG        0.109366
     13 C10         -14.765    -19.871    -27.016 aq            1 LIG       -0.184416
     14 C11         -14.626    -21.250    -27.128 av            1 LIG       -0.193737
     15 C12         -14.982    -22.088    -26.068 aw            1 LIG        0.059510
     16 C13         -15.474    -21.514    -24.892 ax            1 LIG       -0.193737
     17 C14         -15.625    -20.132    -24.781 ay            1 LIG       -0.184416
     18 C15         -13.751    -15.387    -28.793 az            1 LIG       -0.250570
     19 F1          -15.311    -11.482    -26.354 bb            1 LIG       -0.154876
     20 C16         -14.937    -23.619    -26.218 bc            1 LIG        0.104002
     21 C17         -16.150    -24.110    -27.013 bd            1 LIG       -0.075243
     22 C18         -16.152    -25.636    -27.152 bf            1 LIG       -0.025948
     23 N3          -14.951    -26.011    -28.025 bg            1 LIG        0.003690
     24 C19         -13.660    -25.676    -27.273 bh            1 LIG       -0.025948
     25 C20         -13.630    -24.177    -26.830 bj            1 LIG       -0.075243
     26 C21         -14.997    -27.513    -28.402 bk            1 LIG       -0.271756
     27 H1          -14.111    -12.784    -28.231 bl            1 LIG        0.179288
     28 H2          -16.426    -13.152    -24.654 bm            1 LIG        0.195532
     29 H3          -16.644    -17.852    -24.111 bn            1 LIG        0.326049
     30 H4          -14.491    -19.263    -27.867 bo            1 LIG        0.169606
     31 H5          -14.268    -21.653    -28.063 bp            1 LIG        0.147392
     32 H6          -15.762    -22.142    -24.062 bq            1 LIG        0.147392
     33 H7          -16.020    -19.734    -23.857 bs            1 LIG        0.169606
     34 H8          -14.162    -16.352    -29.075 bt            1 LIG        0.097781
     35 H9          -12.699    -15.516    -28.546 bu            1 LIG        0.097781
     36 H10         -13.823    -14.739    -29.667 bv            1 LIG        0.097781
     37 H11         -15.014    -24.020    -25.206 bw            1 LIG        0.001209
     38 H12         -16.170    -23.664    -28.006 bx            1 LIG        0.059977
     39 H13         -17.050    -23.761    -26.526 by            1 LIG        0.059977
     40 H14         -16.082    -26.152    -26.196 bz            1 LIG        0.098221
     41 H15         -17.039    -25.996    -27.663 cb            1 LIG        0.098221
     42 H16         -13.601    -26.388    -26.463 ci            1 LIG        0.098221
     43 H17         -12.913    -25.951    -28.002 cj            1 LIG        0.098221
     44 H18         -13.352    -23.566    -27.683 ck            1 LIG        0.059977
     45 H19         -12.825    -24.034    -26.106 cm            1 LIG        0.059977
     46 H20         -14.150    -27.712    -29.062 cn            1 LIG        0.149887
     47 H21         -15.938    -27.711    -28.917 ct            1 LIG        0.149887
     48 H22         -14.928    -28.107    -27.491 cw            1 LIG        0.149887
     49 H23         -14.989    -25.444    -28.863 da            1 LIG        0.270178
@<TRIPOS>BOND
        1  1  2  2
        2  1  3  1
        3  1  18  1
        4  2  4  1
        5  2  5  1
        6  3  6  2
        7  3  27  1
        8  4  7  2
        9  4  8  1
        10  5  11  2
        11  6  7  1
        12  6  19  1
        13  7  28  1
        14  8  9  1
        15  8  10  2
        16  9  11  1
        17  9  29  1
        18  11  12  1
        19  12  13  2
        20  12  17  1
        21  13  14  1
        22  13  30  1
        23  14  15  2
        24  14  31  1
        25  15  16  1
        26  15  20  1
        27  16  17  2
        28  16  32  1
        29  17  33  1
        30  18  34  1
        31  18  35  1
        32  18  36  1
        33  20  21  1
        34  20  25  1
        35  20  37  1
        36  21  22  1
        37  21  38  1
        38  21  39  1
        39  22  23  1
        40  22  40  1
        41  22  41  1
        42  23  24  1
        43  23  26  1
        44  23  49  1
        45  24  25  1
        46  24  42  1
        47  24  43  1
        48  25  44  1
        49  25  45  1
        50  26  46  1
        51  26  47  1
        52  26  48  1
@<TRIPOS>SUBSTRUCTURE
       1 LIG             1 RESIDUE    0 **** ROOT      0
