@<TRIPOS>MOLECULE
LIG
44 46
SMALL
USER_CHARGES
@<TRIPOS>ATOM
      1 N1           24.793     41.514      3.148 aa            1 LIG       -0.492715
      2 C1           25.834     40.476      3.061 ab            1 LIG        0.062273
      3 C2           27.175     40.973      3.651 ad            1 LIG       -0.133786
      4 C3           27.704     42.276      2.992 ae            1 LIG        0.600705
      5 C4           26.545     43.229      2.570 af            1 LIG       -0.133786
      6 C5           25.181     42.588      2.224 ah            1 LIG        0.062273
      7 C6           19.826     40.570      5.674 ai            1 LIG       -0.062375
      8 C7           19.592     40.848      7.037 aj            1 LIG        0.053027
      9 C8           18.326     40.573      7.597 ak            1 LIG        0.104777
     10 C9           17.317     40.019      6.815 an            1 LIG       -0.194267
     11 C10          17.548     39.735      5.471 ao            1 LIG       -0.133196
     12 C11          18.790     40.022      4.912 ap            1 LIG       -0.167640
     13 C12          21.147     40.795      5.010 aq            1 LIG        0.313817
     14 N2           21.148     41.703      4.013 av            1 LIG       -0.522510
     15 C13          22.299     41.939      3.333 aw            1 LIG        0.303919
     16 C14          23.505     41.270      3.659 ax            1 LIG        0.536344
     17 N3           23.471     40.338      4.658 ay            1 LIG       -0.614016
     18 C15          22.324     40.095      5.324 az            1 LIG        0.541419
     19 Cl1          17.978     40.926      9.250 bb            1 LIG       -0.101735
     20 Cl2          20.810     41.602      8.017 bc            1 LIG       -0.117213
     21 N4           22.343     39.135      6.328 bd            1 LIG       -0.936047
     22 C16          28.399     41.810      1.699 bf            1 LIG       -0.388598
     23 N5           28.732     42.990      3.765 bg            1 LIG       -0.916626
     24 C17          22.078     42.821      2.206 bh            1 LIG        0.160518
     25 N6           21.899     43.526      1.295 bj            1 LIG       -0.395297
     26 H1           25.537     39.562      3.551 bk            1 LIG        0.081261
     27 H2           25.971     40.187      2.018 bl            1 LIG        0.081261
     28 H3           27.897     40.166      3.558 bm            1 LIG        0.046084
     29 H4           27.045     41.114      4.733 bn            1 LIG        0.046084
     30 H5           26.851     43.854      1.735 bo            1 LIG        0.046084
     31 H6           26.376     43.960      3.368 bp            1 LIG        0.046084
     32 H7           24.495     43.418      2.312 bq            1 LIG        0.081261
     33 H8           25.132     42.264      1.182 bs            1 LIG        0.081261
     34 H9           16.354     39.795      7.247 bt            1 LIG        0.185698
     35 H10          16.771     39.286      4.863 bu            1 LIG        0.178844
     36 H11          18.950     39.778      3.866 bv            1 LIG        0.181535
     37 H12          21.477     38.901      6.788 bw            1 LIG        0.420771
     38 H13          23.197     38.607      6.509 bx            1 LIG        0.420771
     39 H14          28.869     42.547      1.031 by            1 LIG        0.112304
     40 H15          27.702     41.203      1.122 bz            1 LIG        0.112304
     41 H16          29.130     41.041      1.948 cb            1 LIG        0.112304
     42 H17          29.016     43.819      3.264 ci            1 LIG        0.445607
     43 H18          28.356     43.252      4.665 cj            1 LIG        0.445607
     44 H19          29.532     42.387      3.898 ck            1 LIG        0.445607
@<TRIPOS>BOND
        1  1  2  1
        2  1  6  1
        3  1  16  1
        4  2  3  1
        5  2  26  1
        6  2  27  1
        7  3  4  1
        8  3  28  1
        9  3  29  1
        10  4  5  1
        11  4  22  1
        12  4  23  1
        13  5  6  1
        14  5  30  1
        15  5  31  1
        16  6  32  1
        17  6  33  1
        18  7  8  2
        19  7  12  1
        20  7  13  1
        21  8  9  1
        22  8  20  1
        23  9  10  2
        24  9  19  1
        25  10  11  1
        26  10  34  1
        27  11  12  2
        28  11  35  1
        29  12  36  1
        30  13  14  2
        31  13  18  1
        32  14  15  1
        33  15  16  2
        34  15  24  1
        35  16  17  1
        36  17  18  2
        37  18  21  1
        38  21  37  1
        39  21  38  1
        40  22  39  1
        41  22  40  1
        42  22  41  1
        43  23  42  1
        44  23  43  1
        45  23  44  1
        46  24  25  3
@<TRIPOS>SUBSTRUCTURE
       1 LIG             1 RESIDUE    0 **** ROOT      0
