@<TRIPOS>MOLECULE
LIG
38 40
SMALL
USER_CHARGES
@<TRIPOS>ATOM
      1 O1           27.609      1.550    -11.151 aa            1 LIG       -0.690953
      2 C1           27.152      0.301    -11.652 ab            1 LIG        0.205563
      3 C2           26.518      0.376    -13.050 ad            1 LIG        0.288450
      4 C3           25.031      0.597    -12.837 ae            1 LIG       -0.012072
      5 C4           24.806     -0.076    -11.498 af            1 LIG       -0.036887
      6 C5           26.014     -0.242    -10.807 ah            1 LIG       -0.024421
      7 C6           26.018     -0.782     -9.511 ai            1 LIG       -0.005404
      8 C7           24.801     -1.089     -8.900 aj            1 LIG       -0.195794
      9 C8           23.602     -0.929     -9.588 ak            1 LIG       -0.196713
     10 C9           23.602     -0.426    -10.896 an            1 LIG        0.216999
     11 O2           22.484     -0.281    -11.686 ao            1 LIG       -0.313863
     12 C10          21.244     -0.574    -11.191 ap            1 LIG        0.276933
     13 C11          20.676     -1.829    -11.403 aq            1 LIG       -0.270120
     14 C12          19.422     -2.111    -10.871 av            1 LIG        0.228929
     15 F1           18.854     -3.316    -11.065 aw            1 LIG       -0.154022
     16 C13          18.740     -1.145    -10.143 ax            1 LIG       -0.256593
     17 C14          19.285      0.124     -9.964 ay            1 LIG        0.189694
     18 C15          18.574      1.165     -9.248 az            1 LIG        0.220273
     19 C16          20.552      0.392    -10.468 bb            1 LIG       -0.265660
     20 S1           27.534     -1.079     -8.597 bc            1 LIG        0.896832
     21 O3           27.234     -2.030     -7.521 bd            1 LIG       -0.528041
     22 O4           28.591     -1.401     -9.550 bf            1 LIG       -0.528041
     23 C17          27.925      0.600     -7.859 bg            1 LIG       -0.008102
     24 F2           27.064      1.313    -13.826 bh            1 LIG       -0.202333
     25 F3           26.660     -0.802    -13.660 bj            1 LIG       -0.202333
     26 N1           18.014      1.996     -8.671 bk            1 LIG       -0.368447
     27 Cl1          27.085      0.767     -6.306 bl            1 LIG       -0.148601
     28 H1           28.344      1.868    -11.706 bm            1 LIG        0.502494
     29 H2           27.977     -0.409    -11.709 bn            1 LIG        0.084119
     30 H3           24.419      0.189    -13.644 bo            1 LIG        0.068787
     31 H4           24.803      1.662    -12.773 bp            1 LIG        0.068787
     32 H5           24.779     -1.480     -7.894 bq            1 LIG        0.201433
     33 H6           22.690     -1.233     -9.108 bs            1 LIG        0.192360
     34 H7           21.211     -2.593    -11.944 bt            1 LIG        0.194248
     35 H8           17.804     -1.422     -9.706 bu            1 LIG        0.182850
     36 H9           21.008      1.348    -10.275 bv            1 LIG        0.157316
     37 H10          28.997      0.643     -7.686 bw            1 LIG        0.116167
     38 H11          27.625      1.393     -8.542 bx            1 LIG        0.116167
@<TRIPOS>BOND
        1  1  2  1
        2  1  28  1
        3  2  3  1
        4  2  6  1
        5  2  29  1
        6  3  4  1
        7  3  24  1
        8  3  25  1
        9  4  5  1
        10  4  30  1
        11  4  31  1
        12  5  6  2
        13  5  10  1
        14  6  7  1
        15  7  8  2
        16  7  20  1
        17  8  9  1
        18  8  32  1
        19  9  10  2
        20  9  33  1
        21  10  11  1
        22  11  12  1
        23  12  13  2
        24  12  19  1
        25  13  14  1
        26  13  34  1
        27  14  15  1
        28  14  16  2
        29  16  17  1
        30  16  35  1
        31  17  18  1
        32  17  19  2
        33  18  26  3
        34  19  36  1
        35  20  21  2
        36  20  22  2
        37  20  23  1
        38  23  27  1
        39  23  37  1
        40  23  38  1
@<TRIPOS>SUBSTRUCTURE
       1 LIG             1 RESIDUE    0 **** ROOT      0
