@<TRIPOS>MOLECULE
LIG
40 42
SMALL
USER_CHARGES
@<TRIPOS>ATOM
      1 C1           19.887     40.609      5.588 aa            1 LIG       -0.068746
      2 C2           19.660     40.859      6.958 ab            1 LIG        0.066203
      3 C3           18.423     40.530      7.537 ad            1 LIG        0.104862
      4 C4           17.420     39.956      6.759 ae            1 LIG       -0.198042
      5 C5           17.645     39.690      5.411 af            1 LIG       -0.139686
      6 C6           18.865     40.023      4.832 ah            1 LIG       -0.184647
      7 C7           21.187     40.894      4.918 ai            1 LIG        0.320620
      8 N1           21.175     41.893      3.993 aj            1 LIG       -0.525248
      9 C8           22.325     42.154      3.321 ak            1 LIG        0.141948
     10 C9           23.494     41.421      3.553 an            1 LIG        0.490263
     11 N2           23.503     40.420      4.474 ao            1 LIG       -0.610823
     12 C10          22.359     40.161      5.152 ap            1 LIG        0.526678
     13 Cl1          18.097     40.822      9.211 aq            1 LIG       -0.102465
     14 Cl2          20.878     41.619      7.934 av            1 LIG       -0.092359
     15 N3           22.396     39.127      6.077 aw            1 LIG       -0.957642
     16 N4           24.701     41.716      2.909 ax            1 LIG       -0.462786
     17 C11          25.987     41.051      3.120 ay            1 LIG        0.056701
     18 C12          27.076     41.934      2.492 az            1 LIG        0.001676
     19 C13          26.326     42.481      1.288 bb            1 LIG       -0.039631
     20 C14          24.890     42.647      1.794 bc            1 LIG        0.058513
     21 C15          27.616     43.065      3.404 bd            1 LIG        0.063199
     22 N5           28.079     42.508      4.752 bf            1 LIG       -0.309836
     23 H1           16.471     39.695      7.206 bg            1 LIG        0.179789
     24 H2           16.878     39.221      4.812 bh            1 LIG        0.166628
     25 H3           19.026     39.799      3.786 bj            1 LIG        0.163247
     26 H4           22.299     42.965      2.609 bk            1 LIG        0.042020
     27 H5           23.256     38.611      6.239 bl            1 LIG        0.412601
     28 H6           21.555     38.890      6.580 bm            1 LIG        0.412601
     29 H7           26.164     40.891      4.183 bn            1 LIG        0.064253
     30 H8           25.973     40.053      2.676 bo            1 LIG        0.064253
     31 H9           27.916     41.313      2.173 bp            1 LIG        0.043083
     32 H10          26.750     43.416      0.920 bq            1 LIG        0.029250
     33 H11          26.351     41.778      0.454 bs            1 LIG        0.029250
     34 H12          24.202     42.387      0.987 bt            1 LIG        0.074313
     35 H13          24.702     43.677      2.099 bu            1 LIG        0.074313
     36 H14          28.509     43.536      2.991 bv            1 LIG        0.073738
     37 H15          26.881     43.835      3.648 bw            1 LIG        0.073738
     38 H16          28.558     43.221      5.300 bx            1 LIG        0.319390
     39 H17          27.298     42.172      5.306 by            1 LIG        0.319390
     40 H18          28.730     41.751      4.606 bz            1 LIG        0.319390
@<TRIPOS>BOND
        1  1  2  2
        2  1  6  1
        3  1  7  1
        4  2  3  1
        5  2  14  1
        6  3  4  2
        7  3  13  1
        8  4  5  1
        9  4  23  1
        10  5  6  2
        11  5  24  1
        12  6  25  1
        13  7  8  2
        14  7  12  1
        15  8  9  1
        16  9  10  2
        17  9  26  1
        18  10  11  1
        19  10  16  1
        20  11  12  2
        21  12  15  1
        22  15  27  1
        23  15  28  1
        24  16  17  1
        25  16  20  1
        26  17  18  1
        27  17  29  1
        28  17  30  1
        29  18  19  1
        30  18  21  1
        31  18  31  1
        32  19  20  1
        33  19  32  1
        34  19  33  1
        35  20  34  1
        36  20  35  1
        37  21  22  1
        38  21  36  1
        39  21  37  1
        40  22  38  1
        41  22  39  1
        42  22  40  1
@<TRIPOS>SUBSTRUCTURE
       1 LIG             1 RESIDUE    0 **** ROOT      0
