@<TRIPOS>MOLECULE
LIG
48 51
SMALL
USER_CHARGES
@<TRIPOS>ATOM
      1 C1           12.798      0.812      0.076 aa            1 LIG       -0.351878
      2 C2           11.922     -0.161     -0.752 ab            1 LIG        0.591471
      3 C3           12.484     -0.220     -2.174 ad            1 LIG       -0.351878
      4 C4           10.460      0.345     -0.804 ae            1 LIG       -0.351878
      5 C5           11.889     -1.585     -0.183 af            1 LIG       -0.044881
      6 C6           10.851     -2.460     -0.544 ah            1 LIG       -0.198815
      7 C7           10.795     -3.751     -0.048 ai            1 LIG       -0.219377
      8 C8           11.812     -4.215      0.784 aj            1 LIG        0.223095
      9 C9           12.878     -3.366      1.143 ak            1 LIG       -0.027180
     10 C10          12.876     -2.052      0.677 an            1 LIG       -0.243922
     11 C11          14.026     -3.876      1.988 ao            1 LIG        0.272066
     12 O1           13.806     -3.442      3.333 ap            1 LIG       -0.495539
     13 C12          14.876     -3.785      4.218 aq            1 LIG        0.224771
     14 C13          15.069     -5.321      4.254 av            1 LIG       -0.058527
     15 C14          15.229     -5.900      2.845 aw            1 LIG       -0.057270
     16 C15          14.124     -5.405      1.889 ax            1 LIG        0.049948
     17 C16          12.735     -6.075      2.132 ay            1 LIG        0.133566
     18 C17          12.793     -7.577      1.945 az            1 LIG        0.031373
     19 C18          12.222     -8.563      2.739 bb            1 LIG       -0.207700
     20 C19          12.444     -9.862      2.289 bc            1 LIG       -0.162440
     21 C20          13.198     -9.893      1.129 bd            1 LIG       -0.145246
     22 S1           13.652     -8.296      0.624 bf            1 LIG       -0.036634
     23 N1           11.734     -5.542      1.214 bg            1 LIG       -0.575167
     24 H1           12.865      1.823     -0.332 bh            1 LIG        0.069141
     25 H2           13.797      0.404      0.094 bj            1 LIG        0.069141
     26 H3           12.532      0.883      1.134 bk            1 LIG        0.069141
     27 H4           12.539      0.735     -2.695 bl            1 LIG        0.069141
     28 H5           11.790     -0.865     -2.704 bm            1 LIG        0.069141
     29 H6           13.474     -0.666     -2.211 bn            1 LIG        0.069141
     30 H7            9.774     -0.197     -1.450 bo            1 LIG        0.069141
     31 H8           10.270      1.364     -1.111 bp            1 LIG        0.069141
     32 H9           10.134      0.275      0.217 bq            1 LIG        0.069141
     33 H10          10.062     -2.179     -1.212 bs            1 LIG        0.144084
     34 H11           9.966     -4.383     -0.326 bt            1 LIG        0.130240
     35 H12          13.710     -1.444      0.981 bu            1 LIG        0.154002
     36 H13          14.956     -3.439      1.610 bv            1 LIG        0.007014
     37 H14          15.795     -3.321      3.874 bw            1 LIG        0.014838
     38 H15          14.665     -3.398      5.212 bx            1 LIG        0.014838
     39 H16          15.943     -5.568      4.858 by            1 LIG        0.024225
     40 H17          14.211     -5.776      4.751 bz            1 LIG        0.024225
     41 H18          16.198     -5.612      2.432 cb            1 LIG        0.018526
     42 H19          15.251     -6.987      2.895 ci            1 LIG        0.018526
     43 H20          14.437     -5.617      0.866 cj            1 LIG        0.011305
     44 H21          12.392     -5.816      3.133 ck            1 LIG        0.043299
     45 H22          11.653     -8.343      3.624 cm            1 LIG        0.144153
     46 H23          12.063    -10.745      2.787 cn            1 LIG        0.148848
     47 H24          13.500    -10.753      0.557 ct            1 LIG        0.161058
     48 H25          10.877     -6.065      1.165 cw            1 LIG        0.320588
@<TRIPOS>BOND
        1  1  2  1
        2  1  24  1
        3  1  25  1
        4  1  26  1
        5  2  3  1
        6  2  4  1
        7  2  5  1
        8  3  27  1
        9  3  28  1
        10  3  29  1
        11  4  30  1
        12  4  31  1
        13  4  32  1
        14  5  6  2
        15  5  10  1
        16  6  7  1
        17  6  33  1
        18  7  8  2
        19  7  34  1
        20  8  9  1
        21  8  23  1
        22  9  10  2
        23  9  11  1
        24  10  35  1
        25  11  12  1
        26  11  16  1
        27  11  36  1
        28  12  13  1
        29  13  14  1
        30  13  37  1
        31  13  38  1
        32  14  15  1
        33  14  39  1
        34  14  40  1
        35  15  16  1
        36  15  41  1
        37  15  42  1
        38  16  17  1
        39  16  43  1
        40  17  18  1
        41  17  23  1
        42  17  44  1
        43  18  19  2
        44  18  22  1
        45  19  20  1
        46  19  45  1
        47  20  21  2
        48  20  46  1
        49  21  22  1
        50  21  47  1
        51  23  48  1
@<TRIPOS>SUBSTRUCTURE
       1 LIG             1 RESIDUE    0 **** ROOT      0
