@<TRIPOS>MOLECULE
LIG
56 60
SMALL
USER_CHARGES
@<TRIPOS>ATOM
      1 C1           91.613     48.335    266.670 aa            1 LIG        0.281012
      2 C2           91.973     49.532    267.281 ab            1 LIG       -0.244572
      3 C3           93.289     49.796    267.680 ad            1 LIG        0.000701
      4 C4           92.569     47.344    266.469 ae            1 LIG       -0.310054
      5 C5           93.897     47.541    266.905 af            1 LIG        0.294243
      6 C6           94.275     48.780    267.508 ah            1 LIG        0.245884
      7 N1           95.563     48.964    267.937 ai            1 LIG       -0.480053
      8 C7           96.450     47.955    267.748 aj            1 LIG        0.165254
      9 C8           96.064     46.744    267.189 ak            1 LIG        0.172052
     10 N2           94.798     46.530    266.761 an            1 LIG       -0.491188
     11 N3           90.275     48.125    266.316 ao            1 LIG       -0.561665
     12 C9           93.604     51.094    268.322 ap            1 LIG        0.066503
     13 C10          94.572     51.944    267.790 aq            1 LIG       -0.176618
     14 C11          94.868     53.180    268.366 av            1 LIG       -0.194743
     15 C12          92.915     51.432    269.487 aw            1 LIG       -0.238506
     16 C13          93.213     52.662    270.073 ax            1 LIG        0.068316
     17 C14          94.158     53.570    269.512 ay            1 LIG        0.069763
     18 C15          94.154     54.709    270.331 az            1 LIG       -0.220650
     19 C16          93.282     54.495    271.357 bb            1 LIG       -0.136486
     20 N4           92.730     53.241    271.228 bc            1 LIG       -0.019964
     21 C17          91.769     52.620    272.128 bd            1 LIG        0.174980
     22 C18          91.669     53.355    273.482 bf            1 LIG       -0.274757
     23 C19          90.400     52.419    271.386 bg            1 LIG       -0.274757
     24 C20          89.716     47.346    265.290 bh            1 LIG        0.149736
     25 C21          90.421     47.127    264.099 bj            1 LIG        0.177336
     26 N5           89.917     46.437    263.045 bk            1 LIG       -0.466107
     27 C22          88.661     45.940    263.165 bl            1 LIG        0.239061
     28 C23          87.888     46.095    264.315 bm            1 LIG       -0.272712
     29 C24          88.424     46.803    265.397 bn            1 LIG       -0.025535
     30 S1           87.482     46.896    266.926 bo            1 LIG        0.919897
     31 O1           86.136     46.376    266.669 bp            1 LIG       -0.549954
     32 O2           87.658     48.243    267.478 bq            1 LIG       -0.549954
     33 C25          88.380     45.676    268.044 bs            1 LIG       -0.370308
     34 H1           91.215     50.285    267.444 bt            1 LIG        0.153932
     35 H2           92.284     46.395    266.036 bu            1 LIG        0.164637
     36 H3           97.471     48.145    268.045 bv            1 LIG        0.056871
     37 H4           96.771     45.944    267.024 bw            1 LIG        0.057894
     38 H5           89.578     48.611    266.872 bx            1 LIG        0.376993
     39 H6           95.100     51.654    266.896 by            1 LIG        0.153036
     40 H7           95.616     53.828    267.930 bz            1 LIG        0.140142
     41 H8           92.188     50.754    269.909 cb            1 LIG        0.134885
     42 H9           94.753     55.624    270.220 ci            1 LIG        0.140733
     43 H10          93.016     55.096    272.192 cj            1 LIG        0.144219
     44 H11          92.154     51.624    272.355 ck            1 LIG        0.044893
     45 H12          92.548     53.647    274.050 cm            1 LIG        0.080749
     46 H13          91.112     52.712    274.193 cn            1 LIG        0.080749
     47 H14          91.288     54.356    273.247 ct            1 LIG        0.080749
     48 H15          90.506     51.884    270.453 cw            1 LIG        0.080749
     49 H16          89.825     53.250    271.010 da            1 LIG        0.080749
     50 H17          89.696     51.898    272.023 db            1 LIG        0.080749
     51 H18          91.417     47.518    263.975 dc            1 LIG        0.092110
     52 H19          88.277     45.384    262.323 dd            1 LIG        0.077511
     53 H20          86.902     45.650    264.374 de            1 LIG        0.168895
     54 H21          87.864     45.630    269.002 df            1 LIG        0.147532
     55 H22          89.407     46.014    268.177 dg            1 LIG        0.147532
     56 H23          88.363     44.696    267.570 dh            1 LIG        0.147532
@<TRIPOS>BOND
        1  1  2  2
        2  1  4  1
        3  1  11  1
        4  2  3  1
        5  2  34  1
        6  3  6  2
        7  3  12  1
        8  4  5  2
        9  4  35  1
        10  5  6  1
        11  5  10  1
        12  6  7  1
        13  7  8  2
        14  8  9  1
        15  8  36  1
        16  9  10  2
        17  9  37  1
        18  11  24  1
        19  11  38  1
        20  12  13  2
        21  12  15  1
        22  13  14  1
        23  13  39  1
        24  14  17  2
        25  14  40  1
        26  15  16  2
        27  15  41  1
        28  16  17  1
        29  16  20  1
        30  17  18  1
        31  18  19  2
        32  18  42  1
        33  19  20  1
        34  19  43  1
        35  20  21  1
        36  21  22  1
        37  21  23  1
        38  21  44  1
        39  22  45  1
        40  22  46  1
        41  22  47  1
        42  23  48  1
        43  23  49  1
        44  23  50  1
        45  24  25  2
        46  24  29  1
        47  25  26  1
        48  25  51  1
        49  26  27  2
        50  27  28  1
        51  27  52  1
        52  28  29  2
        53  28  53  1
        54  29  30  1
        55  30  31  2
        56  30  32  2
        57  30  33  1
        58  33  54  1
        59  33  55  1
        60  33  56  1
@<TRIPOS>SUBSTRUCTURE
       1 LIG             1 RESIDUE    0 **** ROOT      0
