@<TRIPOS>MOLECULE
LIG
46 50
SMALL
USER_CHARGES
@<TRIPOS>ATOM
      1 C1           -4.257     -3.104     13.569 aa            1 LIG        0.065158
      2 O1           -3.874     -2.361     14.716 ab            1 LIG       -0.352423
      3 C2           -2.526     -2.111     14.817 ad            1 LIG        0.191758
      4 C3           -1.746     -2.870     15.682 ae            1 LIG       -0.222155
      5 C4           -0.390     -2.610     15.814 af            1 LIG       -0.223514
      6 C5            0.221     -1.585     15.087 ah            1 LIG        0.272069
      7 N1            1.604     -1.359     15.321 ai            1 LIG       -0.565871
      8 C6            2.536     -0.449     14.762 aj            1 LIG        0.446815
      9 N2            2.181      0.373     13.724 ak            1 LIG       -0.554934
     10 C7            3.114      1.239     13.217 an            1 LIG        0.211272
     11 C8            4.418      1.284     13.702 ao            1 LIG       -0.117789
     12 N3            4.747      0.487     14.761 ap            1 LIG        0.063686
     13 C9            5.898      0.378     15.486 aq            1 LIG       -0.163352
     14 C10           5.588     -0.524     16.529 av            1 LIG        0.031553
     15 N4            4.376     -1.044     16.374 aw            1 LIG       -0.513579
     16 C11           3.837     -0.391     15.324 ax            1 LIG        0.173023
     17 C12           2.637      2.162     12.121 ay            1 LIG        0.114120
     18 C13           1.312      2.643     12.132 az            1 LIG       -0.191540
     19 C14           0.839      3.528     11.161 bb            1 LIG       -0.195548
     20 C15           1.720      3.929     10.165 bc            1 LIG        0.207701
     21 N5            1.542      4.786      9.115 bd            1 LIG       -0.261350
     22 N6            2.714      4.853      8.400 bf            1 LIG       -0.184701
     23 N7            3.590      4.038      9.000 bg            1 LIG       -0.026498
     24 C16           3.032      3.438     10.122 bh            1 LIG        0.069569
     25 C17           3.525      2.543     11.080 bj            1 LIG       -0.265725
     26 C18          -0.555     -0.819     14.192 bk            1 LIG       -0.299517
     27 C19          -1.944     -1.088     14.061 bl            1 LIG        0.202493
     28 O2           -2.753     -0.356     13.205 bm            1 LIG       -0.346725
     29 C20          -2.232      0.645     12.352 bn            1 LIG        0.060956
     30 H1           -5.336     -3.252     13.587 bo            1 LIG        0.055348
     31 H2           -3.789     -4.090     13.559 bp            1 LIG        0.055348
     32 H3           -4.012     -2.581     12.644 bq            1 LIG        0.055348
     33 H4           -2.194     -3.662     16.263 bs            1 LIG        0.155499
     34 H5            0.199     -3.207     16.498 bt            1 LIG        0.144552
     35 H6            1.991     -1.935     16.053 bu            1 LIG        0.364846
     36 H7            5.181      1.963     13.342 bv            1 LIG        0.119457
     37 H8            6.785      0.949     15.276 bw            1 LIG        0.149616
     38 H9            6.229     -0.794     17.352 bx            1 LIG        0.150284
     39 H10           0.644      2.338     12.928 by            1 LIG        0.164017
     40 H11          -0.166      3.894     11.190 bz            1 LIG        0.162411
     41 H12           4.524      3.930      8.626 cb            1 LIG        0.290111
     42 H13           4.524      2.159     11.032 ci            1 LIG        0.138110
     43 H14          -0.108     -0.032     13.625 cj            1 LIG        0.195225
     44 H15          -3.051      1.073     11.770 ck            1 LIG        0.058292
     45 H16          -1.510      0.234     11.650 cm            1 LIG        0.058292
     46 H17          -1.782      1.450     12.928 cn            1 LIG        0.058292
@<TRIPOS>BOND
        1  1  2  1
        2  1  30  1
        3  1  31  1
        4  1  32  1
        5  2  3  1
        6  3  4  2
        7  3  27  1
        8  4  5  1
        9  4  33  1
        10  5  6  2
        11  5  34  1
        12  6  7  1
        13  6  26  1
        14  7  8  1
        15  7  35  1
        16  8  9  2
        17  8  16  1
        18  9  10  1
        19  10  11  2
        20  10  17  1
        21  11  12  1
        22  11  36  1
        23  12  13  1
        24  12  16  1
        25  13  14  2
        26  13  37  1
        27  14  15  1
        28  14  38  1
        29  15  16  2
        30  17  18  2
        31  17  25  1
        32  18  19  1
        33  18  39  1
        34  19  20  2
        35  19  40  1
        36  20  21  1
        37  20  24  1
        38  21  22  2
        39  22  23  1
        40  23  24  1
        41  23  41  1
        42  24  25  2
        43  25  42  1
        44  26  27  2
        45  26  43  1
        46  27  28  1
        47  28  29  1
        48  29  44  1
        49  29  45  1
        50  29  46  1
@<TRIPOS>SUBSTRUCTURE
       1 LIG             1 RESIDUE    0 **** ROOT      0
