@<TRIPOS>MOLECULE
LIG
49 53
SMALL
USER_CHARGES
@<TRIPOS>ATOM
      1 C1           -6.396     12.316    -12.023 aa            1 LIG        0.157209
      2 C2           -6.548     11.786    -10.739 ab            1 LIG       -0.266270
      3 C3           -7.743     10.528    -13.027 ad            1 LIG       -0.204150
      4 C4           -7.003     11.699    -13.137 ae            1 LIG       -0.206550
      5 C5           -7.841      9.989    -11.744 af            1 LIG        0.063487
      6 C6           -7.267     10.606    -10.599 ah            1 LIG        0.053672
      7 C7           -7.628      9.741     -9.502 ai            1 LIG        0.096234
      8 N1           -8.289      8.720     -9.971 aj            1 LIG       -0.422622
      9 N2           -8.436      8.849    -11.285 ak            1 LIG       -0.026306
     10 C8           -7.340      9.886     -8.021 an            1 LIG        0.037251
     11 C9           -5.470     14.216    -13.332 ao            1 LIG        0.653430
     12 C10          -4.522     15.346    -13.004 ap            1 LIG       -0.096252
     13 N3           -5.581     13.470    -12.177 aq            1 LIG       -0.278576
     14 C11          -5.963     10.485     -7.736 av            1 LIG        0.093943
     15 C12          -5.854     11.756     -7.162 aw            1 LIG       -0.194359
     16 C13          -4.595     12.306     -6.916 ax            1 LIG       -0.194992
     17 C14          -3.445     11.585     -7.238 ay            1 LIG        0.105850
     18 C15          -3.556     10.312     -7.804 az            1 LIG       -0.194992
     19 C16          -4.813      9.765     -8.053 bb            1 LIG       -0.194359
     20 C17          -2.091     12.163     -6.978 bc            1 LIG        0.035372
     21 C18          -1.740     13.421     -6.500 bd            1 LIG       -0.192778
     22 N4           -0.401     13.456     -6.436 bf            1 LIG        0.225881
     23 N5            0.186     12.350     -6.808 bg            1 LIG       -0.439130
     24 C19          -0.802     11.547     -7.168 bh            1 LIG       -0.016240
     25 C20           0.433     14.567     -6.005 bj            1 LIG       -0.203622
     26 O1           -6.013     14.033    -14.416 bk            1 LIG       -0.609495
     27 C21          -4.679     13.977    -11.130 bl            1 LIG        0.029616
     28 C22          -4.083     15.256    -11.588 bm            1 LIG       -0.029709
     29 H1           -6.096     12.266     -9.883 bn            1 LIG        0.134436
     30 H2           -8.187     10.058    -13.886 bo            1 LIG        0.142672
     31 H3           -6.880     12.112    -14.115 bp            1 LIG        0.190021
     32 H4           -8.922      8.140    -11.821 bq            1 LIG        0.281906
     33 H5           -8.099     10.540     -7.590 bs            1 LIG        0.029287
     34 H6           -7.436      8.923     -7.517 bt            1 LIG        0.029287
     35 H7           -4.954     16.310    -13.267 bu            1 LIG        0.048592
     36 H8           -3.682     15.220    -13.654 bv            1 LIG        0.048592
     37 H9           -6.741     12.317     -6.913 bw            1 LIG        0.136330
     38 H10          -4.513     13.287     -6.474 bx            1 LIG        0.135908
     39 H11          -2.670      9.749     -8.052 by            1 LIG        0.135908
     40 H12          -4.894      8.783     -8.496 bz            1 LIG        0.136330
     41 H13          -2.328     14.281     -6.211 cb            1 LIG        0.149797
     42 H14          -0.619     10.548     -7.537 ci            1 LIG        0.142624
     43 H15           1.098     14.861     -6.819 cj            1 LIG        0.104702
     44 H16           1.041     14.258     -5.155 ck            1 LIG        0.104702
     45 H17          -0.178     15.422     -5.719 cm            1 LIG        0.104702
     46 H18          -5.166     14.095    -10.164 cn            1 LIG        0.052177
     47 H19          -3.886     13.242    -10.964 ct            1 LIG        0.052177
     48 H20          -2.993     15.312    -11.470 cw            1 LIG        0.029154
     49 H21          -4.545     16.048    -11.023 da            1 LIG        0.029154
@<TRIPOS>BOND
        1  1  2  2
        2  1  4  1
        3  1  13  1
        4  2  6  1
        5  2  29  1
        6  3  4  2
        7  3  5  1
        8  3  30  1
        9  4  31  1
        10  5  6  2
        11  5  9  1
        12  6  7  1
        13  7  8  2
        14  7  10  1
        15  8  9  1
        16  9  32  1
        17  10  14  1
        18  10  33  1
        19  10  34  1
        20  11  12  1
        21  11  13  1
        22  11  26  2
        23  12  28  1
        24  12  35  1
        25  12  36  1
        26  13  27  1
        27  14  15  2
        28  14  19  1
        29  15  16  1
        30  15  37  1
        31  16  17  2
        32  16  38  1
        33  17  18  1
        34  17  20  1
        35  18  19  2
        36  18  39  1
        37  19  40  1
        38  20  21  2
        39  20  24  1
        40  21  22  1
        41  21  41  1
        42  22  23  1
        43  22  25  1
        44  23  24  2
        45  24  42  1
        46  25  43  1
        47  25  44  1
        48  25  45  1
        49  27  28  1
        50  27  46  1
        51  27  47  1
        52  28  48  1
        53  28  49  1
@<TRIPOS>SUBSTRUCTURE
       1 LIG             1 RESIDUE    0 **** ROOT      0
