@<TRIPOS>MOLECULE
LIG
43 45
SMALL
USER_CHARGES
@<TRIPOS>ATOM
      1 N1           24.699     41.288      3.108 aa            1 LIG       -0.490585
      2 C1           24.754     42.366      2.083 ab            1 LIG        0.016277
      3 C2           26.082     43.185      2.078 ad            1 LIG        0.264649
      4 N2           27.254     42.333      2.413 ae            1 LIG       -0.320125
      5 C3           27.122     41.495      3.636 af            1 LIG        0.264649
      6 C4           25.927     40.526      3.444 ah            1 LIG        0.016277
      7 C5           19.706     40.207      5.492 ai            1 LIG        0.013583
      8 C6           19.476     40.522      6.829 aj            1 LIG        0.052956
      9 C7           18.197     40.380      7.380 ak            1 LIG        0.107398
     10 C8           17.116     39.987      6.582 an            1 LIG       -0.196603
     11 C9           17.336     39.694      5.221 ao            1 LIG       -0.137896
     12 C10          18.621     39.838      4.672 ap            1 LIG       -0.189209
     13 C11          21.064     40.437      4.925 aq            1 LIG       -0.126891
     14 C12          21.183     41.438      3.956 av            1 LIG        0.221037
     15 N3           22.371     41.661      3.375 aw            1 LIG       -0.635946
     16 C13          23.501     40.978      3.701 ax            1 LIG        0.776717
     17 N4           23.399     40.001      4.638 ay            1 LIG       -0.662518
     18 C14          22.231     39.697      5.247 az            1 LIG        0.612733
     19 Cl1          17.905     40.726      9.048 bb            1 LIG       -0.097925
     20 Cl2          20.779     41.081      7.827 bc            1 LIG       -0.077323
     21 N5           22.224     38.616      6.229 bd            1 LIG       -0.956566
     22 C15          26.280     43.871      0.759 bf            1 LIG       -0.324544
     23 C16          28.386     40.722      3.870 bg            1 LIG       -0.324544
     24 H1           23.926     43.069      2.183 bh            1 LIG        0.100182
     25 H2           24.613     41.887      1.113 bj            1 LIG        0.100182
     26 H3           26.013     43.971      2.832 bk            1 LIG        0.028294
     27 H4           28.068     42.923      2.506 bl            1 LIG        0.294963
     28 H5           26.965     42.129      4.510 bm            1 LIG        0.028294
     29 H6           25.805     39.938      4.356 bn            1 LIG        0.100182
     30 H7           26.123     39.807      2.647 bo            1 LIG        0.100182
     31 H8           16.129     39.893      7.011 bp            1 LIG        0.183251
     32 H9           16.510     39.386      4.595 bq            1 LIG        0.169271
     33 H10          18.771     39.632      3.622 bs            1 LIG        0.166838
     34 H11          20.345     42.039      3.635 bt            1 LIG        0.115951
     35 H12          21.366     38.367      6.700 bu            1 LIG        0.418643
     36 H13          23.078     38.117      6.436 bv            1 LIG        0.418643
     37 H14          25.410     44.489      0.536 bw            1 LIG        0.112427
     38 H15          26.406     43.124     -0.025 bx            1 LIG        0.112427
     39 H16          27.169     44.500      0.807 by            1 LIG        0.112427
     40 H17          28.278     40.112      4.767 bz            1 LIG        0.112427
     41 H18          29.217     41.415      4.000 cb            1 LIG        0.112427
     42 H19          28.581     40.077      3.013 ci            1 LIG        0.112427
     43 H20          27.397     41.703      1.637 cj            1 LIG        0.294963
@<TRIPOS>BOND
        1  1  2  1
        2  1  6  1
        3  1  16  1
        4  2  3  1
        5  2  24  1
        6  2  25  1
        7  3  4  1
        8  3  22  1
        9  3  26  1
        10  4  5  1
        11  4  27  1
        12  4  43  1
        13  5  6  1
        14  5  23  1
        15  5  28  1
        16  6  29  1
        17  6  30  1
        18  7  8  2
        19  7  12  1
        20  7  13  1
        21  8  9  1
        22  8  20  1
        23  9  10  2
        24  9  19  1
        25  10  11  1
        26  10  31  1
        27  11  12  2
        28  11  32  1
        29  12  33  1
        30  13  14  2
        31  13  18  1
        32  14  15  1
        33  14  34  1
        34  15  16  2
        35  16  17  1
        36  17  18  2
        37  18  21  1
        38  21  35  1
        39  21  36  1
        40  22  37  1
        41  22  38  1
        42  22  39  1
        43  23  40  1
        44  23  41  1
        45  23  42  1
@<TRIPOS>SUBSTRUCTURE
       1 LIG             1 RESIDUE    0 **** ROOT      0
