@<TRIPOS>MOLECULE
LIG
64 68
SMALL
USER_CHARGES
@<TRIPOS>ATOM
      1 C1           -8.452      6.185     12.289 aa            1 LIG        0.063362
      2 O1           -7.180      5.705     12.054 ab            1 LIG       -0.440326
      3 C2           -6.330      6.288     12.936 ad            1 LIG        0.735338
      4 O2           -6.690      7.101     13.780 ae            1 LIG       -0.609203
      5 C3           -4.939      5.779     12.697 af            1 LIG        0.004094
      6 C4           -4.703      4.851     11.689 ah            1 LIG       -0.177777
      7 C5           -3.415      4.378     11.467 ai            1 LIG       -0.207546
      8 C6           -2.363      4.834     12.253 aj            1 LIG        0.219215
      9 N1           -1.010      4.338     12.020 ak            1 LIG       -0.491916
     10 C7           -0.578      3.765     10.896 an            1 LIG        0.702954
     11 O3           -1.298      3.593      9.916 ao            1 LIG       -0.599622
     12 C8            0.866      3.371     10.989 ap            1 LIG        0.012707
     13 C9            1.788      3.808     10.032 aq            1 LIG       -0.174693
     14 C10           3.129      3.450     10.128 av            1 LIG       -0.132197
     15 C11           3.557      2.628     11.167 aw            1 LIG       -0.179588
     16 C12           2.656      2.156     12.134 ax            1 LIG        0.115054
     17 C13           1.314      2.558     12.042 ay            1 LIG       -0.248802
     18 C14           3.123      1.241     13.218 az            1 LIG        0.210049
     19 C15           4.421      1.304     13.717 bb            1 LIG       -0.117769
     20 N2            4.748      0.492     14.765 bc            1 LIG        0.063741
     21 C16           5.890      0.384     15.504 bd            1 LIG       -0.163419
     22 C17           5.572     -0.509     16.518 bf            1 LIG        0.031727
     23 N3            4.382     -1.054     16.392 bg            1 LIG       -0.514178
     24 C18           3.833     -0.417     15.325 bh            1 LIG        0.173447
     25 C19           2.545     -0.469     14.754 bj            1 LIG        0.446876
     26 N4            1.593     -1.349     15.306 bk            1 LIG       -0.565235
     27 C20           0.222     -1.583     15.089 bl            1 LIG        0.271394
     28 C21          -0.386     -2.611     15.815 bm            1 LIG       -0.224923
     29 C22          -1.750     -2.867     15.680 bn            1 LIG       -0.222142
     30 C23          -2.526     -2.106     14.805 bo            1 LIG        0.192353
     31 O4           -3.874     -2.353     14.717 bp            1 LIG       -0.351754
     32 C24          -4.255     -3.103     13.571 bq            1 LIG        0.064568
     33 C25          -1.939     -1.076     14.058 bs            1 LIG        0.201984
     34 O5           -2.699     -0.305     13.202 bt            1 LIG       -0.347612
     35 C26          -2.002      0.675     12.525 bu            1 LIG        0.064142
     36 C27          -0.566     -0.826     14.211 bv            1 LIG       -0.297053
     37 N5            2.218      0.355     13.719 bw            1 LIG       -0.553195
     38 C28          -2.599      5.762     13.260 bx            1 LIG       -0.207546
     39 C29          -3.887      6.234     13.482 by            1 LIG       -0.177777
     40 H1           -9.149      5.726     11.588 bz            1 LIG        0.067062
     41 H2           -8.463      7.267     12.156 cb            1 LIG        0.067062
     42 H3           -8.750      5.942     13.309 ci            1 LIG        0.067062
     43 H4           -5.523      4.496     11.077 cj            1 LIG        0.170193
     44 H5           -3.232      3.656     10.683 ck            1 LIG        0.170574
     45 H6           -0.454      4.499     12.847 cm            1 LIG        0.302414
     46 H7            1.456      4.435      9.217 cn            1 LIG        0.169275
     47 H8            3.834      3.794      9.384 ct            1 LIG        0.154913
     48 H9            4.593      2.331     11.200 cw            1 LIG        0.169614
     49 H10           0.605      2.213     12.781 da            1 LIG        0.137789
     50 H11           5.170      2.003     13.372 db            1 LIG        0.115843
     51 H12           6.766      0.974     15.290 dc            1 LIG        0.149780
     52 H13           6.209     -0.833     17.330 dd            1 LIG        0.150901
     53 H14           2.025     -1.885     16.048 de            1 LIG        0.363969
     54 H15           0.191     -3.210     16.503 df            1 LIG        0.186431
     55 H16          -2.210     -3.653     16.261 dg            1 LIG        0.157370
     56 H17          -5.331     -3.280     13.589 dh            1 LIG        0.056164
     57 H18          -3.753     -4.071     13.551 di            1 LIG        0.056164
     58 H19          -4.018     -2.568     12.650 dj            1 LIG        0.056164
     59 H20          -2.685      1.226     11.879 dk            1 LIG        0.056644
     60 H21          -1.222      0.213     11.920 dl            1 LIG        0.056644
     61 H22          -1.548      1.359     13.242 dm            1 LIG        0.056644
     62 H23          -0.155     -0.017     13.634 dn            1 LIG        0.151826
     63 H24          -1.780      6.116     13.872 do            1 LIG        0.170574
     64 H25          -4.071      6.957     14.266 dp            1 LIG        0.170193
@<TRIPOS>BOND
        1  1  2  1
        2  1  40  1
        3  1  41  1
        4  1  42  1
        5  2  3  1
        6  3  4  2
        7  3  5  1
        8  5  6  2
        9  5  39  1
        10  6  7  1
        11  6  43  1
        12  7  8  2
        13  7  44  1
        14  8  9  1
        15  8  38  1
        16  9  10  1
        17  9  45  1
        18  10  11  2
        19  10  12  1
        20  12  13  2
        21  12  17  1
        22  13  14  1
        23  13  46  1
        24  14  15  2
        25  14  47  1
        26  15  16  1
        27  15  48  1
        28  16  17  2
        29  16  18  1
        30  17  49  1
        31  18  19  2
        32  18  37  1
        33  19  20  1
        34  19  50  1
        35  20  21  1
        36  20  24  1
        37  21  22  2
        38  21  51  1
        39  22  23  1
        40  22  52  1
        41  23  24  2
        42  24  25  1
        43  25  26  1
        44  25  37  2
        45  26  27  1
        46  26  53  1
        47  27  28  2
        48  27  36  1
        49  28  29  1
        50  28  54  1
        51  29  30  2
        52  29  55  1
        53  30  31  1
        54  30  33  1
        55  31  32  1
        56  32  56  1
        57  32  57  1
        58  32  58  1
        59  33  34  1
        60  33  36  2
        61  34  35  1
        62  35  59  1
        63  35  60  1
        64  35  61  1
        65  36  62  1
        66  38  39  2
        67  38  63  1
        68  39  64  1
@<TRIPOS>SUBSTRUCTURE
       1 LIG             1 RESIDUE    0 **** ROOT      0
