@<TRIPOS>MOLECULE
LIG
34 35
SMALL
USER_CHARGES
@<TRIPOS>ATOM
      1 C1           27.321      0.209    -11.544 aa            1 LIG        0.268512
      2 C2           24.810     -0.038    -11.502 ab            1 LIG        0.049647
      3 C3           26.034     -0.225    -10.832 ad            1 LIG       -0.041070
      4 C4           26.039     -0.773     -9.529 ae            1 LIG       -0.018538
      5 C5           24.813     -1.087     -8.921 af            1 LIG       -0.192472
      6 C6           23.612     -0.939     -9.608 ah            1 LIG       -0.197988
      7 C7           23.611     -0.425    -10.922 ai            1 LIG        0.217770
      8 O1           22.476     -0.305    -11.692 aj            1 LIG       -0.306943
      9 C8           21.238     -0.584    -11.190 ak            1 LIG        0.278024
     10 C9           20.664     -1.839    -11.398 an            1 LIG       -0.204143
     11 C10          19.410     -2.122    -10.864 ao            1 LIG       -0.130482
     12 C11          18.732     -1.137    -10.141 ap            1 LIG       -0.185012
     13 C12          19.265      0.114     -9.971 aq            1 LIG        0.187580
     14 C13          18.579      1.165     -9.243 av            1 LIG        0.219216
     15 C14          20.560      0.400    -10.480 aw            1 LIG       -0.244928
     16 S1           27.540     -1.091     -8.555 ax            1 LIG        0.864712
     17 O2           27.186     -2.008     -7.484 ay            1 LIG       -0.518533
     18 O3           28.621     -1.451     -9.459 az            1 LIG       -0.518533
     19 C15          27.963      0.594     -7.792 bb            1 LIG        0.275053
     20 F1           27.798      1.567     -8.668 bc            1 LIG       -0.178143
     21 F2           27.086      0.798     -6.735 bd            1 LIG       -0.178143
     22 Cl1          24.741      0.702    -13.076 bf            1 LIG       -0.059317
     23 O4           27.688      1.524    -11.186 bg            1 LIG       -0.709557
     24 N1           18.001      1.995     -8.685 bh            1 LIG       -0.385720
     25 H1           28.131     -0.495    -11.385 bj            1 LIG        0.039180
     26 H2           27.200      0.195    -12.630 bk            1 LIG        0.039180
     27 H3           24.774     -1.474     -7.913 bl            1 LIG        0.192471
     28 H4           22.689     -1.234     -9.128 bm            1 LIG        0.197304
     29 H5           21.203     -2.588    -11.961 bn            1 LIG        0.147493
     30 H6           18.977     -3.101    -11.006 bo            1 LIG        0.158713
     31 H7           17.756     -1.386     -9.717 bp            1 LIG        0.157756
     32 H8           21.007      1.360    -10.326 bq            1 LIG        0.171838
     33 H9           28.973      0.592     -7.456 bs            1 LIG        0.125552
     34 H10          28.496      1.770    -11.662 bt            1 LIG        0.479521
@<TRIPOS>BOND
        1  1  3  1
        2  1  23  1
        3  1  25  1
        4  1  26  1
        5  2  3  2
        6  2  7  1
        7  2  22  1
        8  3  4  1
        9  4  5  2
        10  4  16  1
        11  5  6  1
        12  5  27  1
        13  6  7  2
        14  6  28  1
        15  7  8  1
        16  8  9  1
        17  9  10  2
        18  9  15  1
        19  10  11  1
        20  10  29  1
        21  11  12  2
        22  11  30  1
        23  12  13  1
        24  12  31  1
        25  13  14  1
        26  13  15  2
        27  14  24  3
        28  15  32  1
        29  16  17  2
        30  16  18  2
        31  16  19  1
        32  19  20  1
        33  19  21  1
        34  19  33  1
        35  23  34  1
@<TRIPOS>SUBSTRUCTURE
       1 LIG             1 RESIDUE    0 **** ROOT      0
