@<TRIPOS>MOLECULE
LIG
38 40
SMALL
USER_CHARGES
@<TRIPOS>ATOM
      1 O1           27.581      1.553    -11.253 aa            1 LIG       -0.691401
      2 C1           27.150      0.278    -11.669 ab            1 LIG        0.211431
      3 C2           26.529      0.406    -13.057 ad            1 LIG       -0.045632
      4 C3           25.038      0.606    -12.826 ae            1 LIG        0.002528
      5 C4           24.805     -0.062    -11.490 af            1 LIG       -0.032388
      6 C5           26.012     -0.236    -10.805 ah            1 LIG       -0.032479
      7 C6           26.013     -0.778     -9.508 ai            1 LIG       -0.014797
      8 C7           24.795     -1.089     -8.899 aj            1 LIG       -0.193120
      9 C8           23.597     -0.935     -9.592 ak            1 LIG       -0.208219
     10 C9           23.600     -0.429    -10.899 an            1 LIG        0.215766
     11 O2           22.486     -0.294    -11.697 ao            1 LIG       -0.318011
     12 C10          21.243     -0.579    -11.201 ap            1 LIG        0.271200
     13 C11          20.672     -1.836    -11.402 aq            1 LIG       -0.197116
     14 C12          19.418     -2.117    -10.863 av            1 LIG       -0.130466
     15 C13          18.732     -1.138    -10.140 aw            1 LIG       -0.183727
     16 C14          19.289      0.133     -9.970 ax            1 LIG        0.185422
     17 C15          18.574      1.169     -9.232 ay            1 LIG        0.216879
     18 C16          20.553      0.401    -10.489 az            1 LIG       -0.252906
     19 S1           27.531     -1.072     -8.593 bb            1 LIG        0.862736
     20 O3           27.233     -2.022     -7.518 bc            1 LIG       -0.519022
     21 O4           28.583     -1.411     -9.550 bd            1 LIG       -0.519022
     22 C17          27.941      0.603     -7.819 bf            1 LIG        0.274963
     23 F1           27.810      1.569     -8.711 bg            1 LIG       -0.182212
     24 F2           27.086      0.817     -6.818 bh            1 LIG       -0.182212
     25 N1           18.013      1.981     -8.630 bj            1 LIG       -0.382743
     26 H1           28.377      1.814    -11.747 bk            1 LIG        0.471983
     27 H2           27.977     -0.433    -11.698 bl            1 LIG        0.085738
     28 H3           26.965      1.226    -13.631 bm            1 LIG        0.039490
     29 H4           26.692     -0.506    -13.631 bn            1 LIG        0.039490
     30 H5           24.425      0.173    -13.615 bo            1 LIG        0.045599
     31 H6           24.806      1.673    -12.783 bp            1 LIG        0.045599
     32 H7           24.776     -1.471     -7.888 bq            1 LIG        0.181404
     33 H8           22.673     -1.237     -9.120 bs            1 LIG        0.168952
     34 H9           21.206     -2.594    -11.959 bt            1 LIG        0.168957
     35 H10          18.979     -3.095    -11.004 bu            1 LIG        0.162465
     36 H11          17.771     -1.380     -9.713 bv            1 LIG        0.159320
     37 H12          21.017      1.366    -10.339 bw            1 LIG        0.156571
     38 H13          28.966      0.598     -7.469 bx            1 LIG        0.118980
@<TRIPOS>BOND
        1  1  2  1
        2  1  26  1
        3  2  3  1
        4  2  6  1
        5  2  27  1
        6  3  4  1
        7  3  28  1
        8  3  29  1
        9  4  5  1
        10  4  30  1
        11  4  31  1
        12  5  6  2
        13  5  10  1
        14  6  7  1
        15  7  8  2
        16  7  19  1
        17  8  9  1
        18  8  32  1
        19  9  10  2
        20  9  33  1
        21  10  11  1
        22  11  12  1
        23  12  13  2
        24  12  18  1
        25  13  14  1
        26  13  34  1
        27  14  15  2
        28  14  35  1
        29  15  16  1
        30  15  36  1
        31  16  17  1
        32  16  18  2
        33  17  25  3
        34  18  37  1
        35  19  20  2
        36  19  21  2
        37  19  22  1
        38  22  23  1
        39  22  24  1
        40  22  38  1
@<TRIPOS>SUBSTRUCTURE
       1 LIG             1 RESIDUE    0 **** ROOT      0
