@<TRIPOS>MOLECULE
LIG
51 54
SMALL
USER_CHARGES
@<TRIPOS>ATOM
      1 C1           12.844      0.792      0.092 aa            1 LIG       -0.351262
      2 C2           11.951     -0.174     -0.729 ab            1 LIG        0.591350
      3 C3           10.504      0.328     -0.791 ad            1 LIG       -0.351262
      4 C4           12.490     -0.221     -2.142 ae            1 LIG       -0.351262
      5 C5           11.889     -1.591     -0.166 af            1 LIG       -0.048107
      6 C6           10.867     -2.472     -0.542 ah            1 LIG       -0.199586
      7 C7           10.797     -3.764     -0.040 ai            1 LIG       -0.223045
      8 C8           11.803     -4.233      0.790 aj            1 LIG        0.220864
      9 C9           12.876     -3.400      1.146 ak            1 LIG       -0.030975
     10 C10          12.870     -2.085      0.701 an            1 LIG       -0.244666
     11 C11          14.024     -3.906      1.993 ao            1 LIG        0.269575
     12 O1           13.794     -3.460      3.334 ap            1 LIG       -0.488933
     13 C12          14.868     -3.792      4.216 aq            1 LIG        0.228292
     14 C13          15.073     -5.322      4.261 av            1 LIG       -0.060336
     15 C14          15.231     -5.911      2.849 aw            1 LIG       -0.048434
     16 C15          14.115     -5.436      1.894 ax            1 LIG        0.056425
     17 C16          12.718     -6.087      2.140 ay            1 LIG        0.130425
     18 C17          12.767     -7.607      2.047 az            1 LIG        0.079674
     19 C18          12.330     -8.392      3.116 bb            1 LIG       -0.193735
     20 C19          12.406     -9.781      3.030 bc            1 LIG       -0.136578
     21 C20          12.925    -10.377      1.883 bd            1 LIG       -0.138323
     22 C21          13.333     -9.600      0.806 bf            1 LIG       -0.136578
     23 C22          13.253     -8.214      0.887 bg            1 LIG       -0.193735
     24 N1           11.724     -5.563      1.218 bh            1 LIG       -0.570565
     25 H1           12.942      1.804     -0.320 bj            1 LIG        0.068442
     26 H2           13.841      0.385      0.094 bk            1 LIG        0.068442
     27 H3           12.551      0.860      1.138 bl            1 LIG        0.068442
     28 H4           10.159      0.251      0.200 bm            1 LIG        0.068442
     29 H5            9.817     -0.184     -1.440 bn            1 LIG        0.068442
     30 H6           10.288      1.329     -1.081 bo            1 LIG        0.068442
     31 H7           12.755      0.736     -2.582 bp            1 LIG        0.068442
     32 H8           11.684     -0.658     -2.708 bq            1 LIG        0.068442
     33 H9           13.344     -0.865     -2.259 bs            1 LIG        0.068442
     34 H10          10.079     -2.183     -1.211 bt            1 LIG        0.141562
     35 H11           9.963     -4.396     -0.328 bu            1 LIG        0.127159
     36 H12          13.712     -1.505      1.021 bv            1 LIG        0.152691
     37 H13          14.948     -3.464      1.606 bw            1 LIG       -0.000411
     38 H14          15.789     -3.323      3.872 bx            1 LIG        0.010613
     39 H15          14.656     -3.402      5.208 by            1 LIG        0.010613
     40 H16          15.949     -5.561      4.865 bz            1 LIG        0.020175
     41 H17          14.217     -5.778      4.758 cb            1 LIG        0.020175
     42 H18          16.199     -5.615      2.437 ci            1 LIG        0.023673
     43 H19          15.261     -6.998      2.904 cj            1 LIG        0.023673
     44 H20          14.435     -5.651      0.871 ck            1 LIG       -0.006663
     45 H21          12.384     -5.828      3.147 cm            1 LIG        0.025816
     46 H22          11.927     -7.926      4.008 cn            1 LIG        0.142623
     47 H23          12.085    -10.388      3.859 ct            1 LIG        0.140695
     48 H24          12.962    -11.456      1.812 cw            1 LIG        0.139694
     49 H25          13.710    -10.065     -0.098 da            1 LIG        0.140695
     50 H26          13.575     -7.615      0.054 db            1 LIG        0.142623
     51 H27          10.817     -5.995      1.311 dc            1 LIG        0.319386
@<TRIPOS>BOND
        1  1  2  1
        2  1  25  1
        3  1  26  1
        4  1  27  1
        5  2  3  1
        6  2  4  1
        7  2  5  1
        8  3  28  1
        9  3  29  1
        10  3  30  1
        11  4  31  1
        12  4  32  1
        13  4  33  1
        14  5  6  2
        15  5  10  1
        16  6  7  1
        17  6  34  1
        18  7  8  2
        19  7  35  1
        20  8  9  1
        21  8  24  1
        22  9  10  2
        23  9  11  1
        24  10  36  1
        25  11  12  1
        26  11  16  1
        27  11  37  1
        28  12  13  1
        29  13  14  1
        30  13  38  1
        31  13  39  1
        32  14  15  1
        33  14  40  1
        34  14  41  1
        35  15  16  1
        36  15  42  1
        37  15  43  1
        38  16  17  1
        39  16  44  1
        40  17  18  1
        41  17  24  1
        42  17  45  1
        43  18  19  2
        44  18  23  1
        45  19  20  1
        46  19  46  1
        47  20  21  2
        48  20  47  1
        49  21  22  1
        50  21  48  1
        51  22  23  2
        52  22  49  1
        53  23  50  1
        54  24  51  1
@<TRIPOS>SUBSTRUCTURE
       1 LIG             1 RESIDUE    0 **** ROOT      0
