@<TRIPOS>MOLECULE
LIG
49 53
SMALL
USER_CHARGES
@<TRIPOS>ATOM
      1 C1           92.568     47.337    266.493 aa            1 LIG       -0.304228
      2 C2           91.614     48.333    266.676 ab            1 LIG        0.282043
      3 C3           91.973     49.532    267.284 ad            1 LIG       -0.244391
      4 C4           93.285     49.794    267.699 ae            1 LIG       -0.001090
      5 C5           93.895     47.534    266.932 af            1 LIG        0.296460
      6 C6           94.274     48.776    267.532 ah            1 LIG        0.246058
      7 N1           95.561     48.964    267.957 ai            1 LIG       -0.481327
      8 C7           96.452     47.956    267.769 aj            1 LIG        0.166231
      9 C8           96.063     46.742    267.215 ak            1 LIG        0.172347
     10 N2           94.798     46.524    266.791 an            1 LIG       -0.486805
     11 C9           93.593     51.097    268.338 ao            1 LIG        0.068582
     12 C10          94.571     51.942    267.790 ap            1 LIG       -0.170805
     13 C11          94.860     53.186    268.348 aq            1 LIG       -0.203895
     14 C12          92.908     51.476    269.497 av            1 LIG       -0.229600
     15 C13          93.190     52.711    270.099 aw            1 LIG        0.061851
     16 C14          94.134     53.556    269.482 ax            1 LIG        0.157620
     17 O1           94.261     54.726    270.167 ay            1 LIG       -0.196074
     18 C15          93.441     54.611    271.248 az            1 LIG       -0.051297
     19 C16          92.769     53.397    271.279 bb            1 LIG       -0.049383
     20 N3           90.276     48.123    266.311 bc            1 LIG       -0.560655
     21 C17          91.822     52.872    272.331 bd            1 LIG       -0.211781
     22 C18          89.719     47.344    265.287 bf            1 LIG        0.149918
     23 C19          88.424     46.799    265.396 bg            1 LIG       -0.025154
     24 C20          87.891     46.084    264.320 bh            1 LIG       -0.272339
     25 C21          88.659     45.935    263.165 bj            1 LIG        0.238995
     26 N4           89.909     46.445    263.037 bk            1 LIG       -0.469740
     27 C22          90.415     47.129    264.091 bl            1 LIG        0.177545
     28 S1           87.483     46.906    266.920 bm            1 LIG        0.919932
     29 O2           86.127     46.410    266.661 bn            1 LIG       -0.547395
     30 O3           87.680     48.245    267.481 bo            1 LIG       -0.547395
     31 C23          88.369     45.660    268.015 bp            1 LIG       -0.370449
     32 H1           92.290     46.389    266.057 bq            1 LIG        0.167499
     33 H2           91.216     50.290    267.434 bs            1 LIG        0.159168
     34 H3           97.475     48.149    268.056 bt            1 LIG        0.058709
     35 H4           96.773     45.943    267.056 bu            1 LIG        0.060344
     36 H5           95.109     51.629    266.906 bv            1 LIG        0.169303
     37 H6           95.608     53.836    267.922 bw            1 LIG        0.156099
     38 H7           92.181     50.818    269.949 bx            1 LIG        0.146436
     39 H8           93.454     55.458    271.926 by            1 LIG        0.161634
     40 H9           89.579     48.593    266.878 bz            1 LIG        0.380220
     41 H10          90.842     52.648    271.913 cb            1 LIG        0.082892
     42 H11          91.677     53.593    273.136 ci            1 LIG        0.082892
     43 H12          92.207     51.957    272.784 cj            1 LIG        0.082892
     44 H13          86.907     45.635    264.381 ck            1 LIG        0.170993
     45 H14          88.272     45.382    262.323 cm            1 LIG        0.077261
     46 H15          91.406     47.536    263.963 cn            1 LIG        0.085478
     47 H16          87.850     45.600    268.969 ct            1 LIG        0.148134
     48 H17          89.395     45.997    268.158 cw            1 LIG        0.148134
     49 H18          88.354     44.690    267.519 da            1 LIG        0.148134
@<TRIPOS>BOND
        1  1  2  2
        2  1  5  1
        3  1  32  1
        4  2  3  1
        5  2  20  1
        6  3  4  2
        7  3  33  1
        8  4  6  1
        9  4  11  1
        10  5  6  2
        11  5  10  1
        12  6  7  1
        13  7  8  2
        14  8  9  1
        15  8  34  1
        16  9  10  2
        17  9  35  1
        18  11  12  2
        19  11  14  1
        20  12  13  1
        21  12  36  1
        22  13  16  2
        23  13  37  1
        24  14  15  2
        25  14  38  1
        26  15  16  1
        27  15  19  1
        28  16  17  1
        29  17  18  1
        30  18  19  2
        31  18  39  1
        32  19  21  1
        33  20  22  1
        34  20  40  1
        35  21  41  1
        36  21  42  1
        37  21  43  1
        38  22  23  2
        39  22  27  1
        40  23  24  1
        41  23  28  1
        42  24  25  2
        43  24  44  1
        44  25  26  1
        45  25  45  1
        46  26  27  2
        47  27  46  1
        48  28  29  2
        49  28  30  2
        50  28  31  1
        51  31  47  1
        52  31  48  1
        53  31  49  1
@<TRIPOS>SUBSTRUCTURE
       1 LIG             1 RESIDUE    0 **** ROOT      0
