@<TRIPOS>MOLECULE
LIG
56 61
SMALL
USER_CHARGES
@<TRIPOS>ATOM
      1 C1           -2.174      0.694     12.386 aa            1 LIG        0.064715
      2 O1           -2.702     -0.347     13.182 ab            1 LIG       -0.368254
      3 C2           -1.910     -1.098     14.038 ad            1 LIG        0.197894
      4 C3           -0.531     -0.829     14.180 ae            1 LIG       -0.298669
      5 C4            0.235     -1.583     15.095 af            1 LIG        0.270589
      6 N1            1.612     -1.360     15.336 ah            1 LIG       -0.567739
      7 C5            2.532     -0.437     14.777 ai            1 LIG        0.445536
      8 N2            2.160      0.394     13.755 aj            1 LIG       -0.557143
      9 C6            3.094      1.240     13.224 ak            1 LIG        0.210889
     10 C7            4.404      1.283     13.694 an            1 LIG       -0.119362
     11 N3            4.739      0.495     14.756 ao            1 LIG        0.061917
     12 C8            5.897      0.391     15.482 ap            1 LIG       -0.164239
     13 C9            5.600     -0.542     16.512 aq            1 LIG        0.030615
     14 N4            4.386     -1.049     16.360 av            1 LIG       -0.515818
     15 C10           3.836     -0.386     15.327 aw            1 LIG        0.172631
     16 C11           2.623      2.154     12.121 ax            1 LIG        0.112295
     17 C12           3.540      2.641     11.164 ay            1 LIG       -0.193913
     18 C13           3.154      3.463     10.105 az            1 LIG       -0.192546
     19 C14           1.809      3.820     10.013 bb            1 LIG        0.062107
     20 C15           0.998      4.605      9.118 bc            1 LIG       -0.012588
     21 N5           -0.242      4.609      9.522 bd            1 LIG       -0.401760
     22 N6           -0.330      3.883     10.637 bf            1 LIG       -0.021653
     23 C16           0.884      3.350     10.996 bg            1 LIG        0.070990
     24 C17           1.262      2.516     12.059 bh            1 LIG       -0.262991
     25 C18          -0.378     -2.589     15.834 bj            1 LIG       -0.221675
     26 C19          -1.734     -2.831     15.717 bk            1 LIG       -0.208327
     27 C20          -2.512     -2.098     14.826 bl            1 LIG        0.194443
     28 N7           -3.874     -2.347     14.745 bm            1 LIG       -0.377475
     29 C21          -4.649     -2.380     13.495 bn            1 LIG        0.044002
     30 C22          -5.403     -3.725     13.361 bo            1 LIG        0.216619
     31 O2           -6.220     -3.950     14.506 bp            1 LIG       -0.472500
     32 C23          -5.473     -4.005     15.718 bq            1 LIG        0.216619
     33 C24          -4.701     -2.706     15.898 bs            1 LIG        0.044002
     34 H1           -2.990      1.136     11.809 bt            1 LIG        0.055414
     35 H2           -1.443      0.291     11.687 bu            1 LIG        0.055414
     36 H3           -1.736      1.479     13.004 bv            1 LIG        0.055414
     37 H4           -0.089     -0.041     13.608 bw            1 LIG        0.188887
     38 H5            2.003     -1.948     16.062 bx            1 LIG        0.362995
     39 H6            5.162      1.952     13.319 by            1 LIG        0.117650
     40 H7            6.777      0.983     15.275 bz            1 LIG        0.147233
     41 H8            6.244     -0.835     17.327 cb            1 LIG        0.147573
     42 H9            4.574      2.351     11.235 ci            1 LIG        0.156241
     43 H10           3.878      3.804      9.373 cj            1 LIG        0.144131
     44 H11           1.304      5.137      8.233 ck            1 LIG        0.150854
     45 H12          -1.215      3.775     11.107 cm            1 LIG        0.283054
     46 H13           0.553      2.168     12.800 cn            1 LIG        0.135458
     47 H14           0.209     -3.180     16.524 ct            1 LIG        0.139304
     48 H15          -2.189     -3.612     16.310 cw            1 LIG        0.153795
     49 H16          -5.385     -1.603     13.470 da            1 LIG        0.049474
     50 H17          -4.000     -2.276     12.622 db            1 LIG        0.049474
     51 H18          -6.032     -3.726     12.472 dc            1 LIG        0.012368
     52 H19          -4.691     -4.548     13.257 dd            1 LIG        0.012368
     53 H20          -6.131     -4.156     16.575 de            1 LIG        0.012368
     54 H21          -4.749     -4.819     15.693 df            1 LIG        0.012368
     55 H22          -5.388     -1.871     16.063 dg            1 LIG        0.049474
     56 H23          -4.107     -2.716     16.811 dh            1 LIG        0.049474
@<TRIPOS>BOND
        1  1  2  1
        2  1  34  1
        3  1  35  1
        4  1  36  1
        5  2  3  1
        6  3  4  2
        7  3  27  1
        8  4  5  1
        9  4  37  1
        10  5  6  1
        11  5  25  2
        12  6  7  1
        13  6  38  1
        14  7  8  2
        15  7  15  1
        16  8  9  1
        17  9  10  2
        18  9  16  1
        19  10  11  1
        20  10  39  1
        21  11  12  1
        22  11  15  1
        23  12  13  2
        24  12  40  1
        25  13  14  1
        26  13  41  1
        27  14  15  2
        28  16  17  2
        29  16  24  1
        30  17  18  1
        31  17  42  1
        32  18  19  2
        33  18  43  1
        34  19  20  1
        35  19  23  1
        36  20  21  2
        37  20  44  1
        38  21  22  1
        39  22  23  1
        40  22  45  1
        41  23  24  2
        42  24  46  1
        43  25  26  1
        44  25  47  1
        45  26  27  2
        46  26  48  1
        47  27  28  1
        48  28  29  1
        49  28  33  1
        50  29  30  1
        51  29  49  1
        52  29  50  1
        53  30  31  1
        54  30  51  1
        55  30  52  1
        56  31  32  1
        57  32  33  1
        58  32  53  1
        59  32  54  1
        60  33  55  1
        61  33  56  1
@<TRIPOS>SUBSTRUCTURE
       1 LIG             1 RESIDUE    0 **** ROOT      0
