@<TRIPOS>MOLECULE
LIG
53 57
SMALL
USER_CHARGES
@<TRIPOS>ATOM
      1 C1           93.287     49.790    267.682 aa            1 LIG        0.000822
      2 C2           92.564     47.342    266.481 ab            1 LIG       -0.313246
      3 C3           91.608     48.334    266.670 ad            1 LIG        0.280052
      4 C4           91.967     49.531    267.278 ae            1 LIG       -0.246078
      5 C5           93.892     47.538    266.907 af            1 LIG        0.293927
      6 C6           94.273     48.775    267.508 ah            1 LIG        0.244353
      7 N1           95.560     48.964    267.935 ai            1 LIG       -0.484846
      8 C7           96.451     47.955    267.748 aj            1 LIG        0.163571
      9 C8           96.063     46.747    267.182 ak            1 LIG        0.171171
     10 N2           94.798     46.530    266.757 an            1 LIG       -0.493430
     11 C9           93.587     51.092    268.337 ao            1 LIG        0.064943
     12 C10          94.561     51.934    267.781 ap            1 LIG       -0.246253
     13 C11          94.850     53.182    268.350 aq            1 LIG        0.089764
     14 C12          92.894     51.446    269.488 av            1 LIG       -0.240661
     15 N3           90.274     48.126    266.315 aw            1 LIG       -0.561291
     16 C13          89.716     47.345    265.289 ax            1 LIG        0.147613
     17 C14          90.420     47.128    264.096 ay            1 LIG        0.179285
     18 N4           89.914     46.435    263.046 az            1 LIG       -0.466081
     19 C15          88.663     45.937    263.168 bb            1 LIG        0.240423
     20 C16          87.891     46.093    264.316 bc            1 LIG       -0.271867
     21 C17          88.424     46.801    265.401 bd            1 LIG       -0.024733
     22 S1           87.480     46.893    266.924 bf            1 LIG        0.917712
     23 O1           86.140     46.376    266.669 bg            1 LIG       -0.547900
     24 O2           87.654     48.248    267.480 bh            1 LIG       -0.547900
     25 C18          88.381     45.676    268.044 bj            1 LIG       -0.370040
     26 C19          93.189     52.659    270.091 bk            1 LIG        0.061892
     27 C20          94.146     53.574    269.521 bl            1 LIG        0.009691
     28 C21          94.135     54.729    270.358 bm            1 LIG       -0.219568
     29 C22          93.277     54.488    271.405 bn            1 LIG       -0.139373
     30 N5           92.722     53.239    271.247 bo            1 LIG        0.035481
     31 C23          91.790     52.622    272.198 bp            1 LIG       -0.190039
     32 C24          95.895     54.068    267.680 bq            1 LIG       -0.237708
     33 H1           92.293     46.401    266.033 bs            1 LIG        0.159416
     34 H2           91.213     50.286    267.448 bt            1 LIG        0.160065
     35 H3           97.469     48.143    268.045 bu            1 LIG        0.052723
     36 H4           96.770     45.945    267.027 bv            1 LIG        0.056274
     37 H5           95.086     51.634    266.895 bw            1 LIG        0.135651
     38 H6           92.168     50.800    269.907 bx            1 LIG        0.160637
     39 H7           89.588     48.618    266.879 by            1 LIG        0.373420
     40 H8           91.420     47.508    263.971 bz            1 LIG        0.090791
     41 H9           88.277     45.385    262.324 cb            1 LIG        0.078556
     42 H10          86.903     45.654    264.365 ci            1 LIG        0.178713
     43 H11          87.867     45.632    268.999 cj            1 LIG        0.148437
     44 H12          89.406     46.013    268.181 ck            1 LIG        0.148437
     45 H13          88.364     44.692    267.572 cm            1 LIG        0.148437
     46 H14          94.751     55.608    270.244 cn            1 LIG        0.141556
     47 H15          93.010     55.085    272.245 ct            1 LIG        0.145782
     48 H16          92.251     51.698    272.572 cw            1 LIG        0.095665
     49 H17          90.861     52.390    271.675 da            1 LIG        0.095665
     50 H18          91.610     53.300    273.021 db            1 LIG        0.095665
     51 H19          96.269     53.637    266.766 dc            1 LIG        0.078142
     52 H20          96.753     54.217    268.302 dd            1 LIG        0.078142
     53 H21          95.473     55.051    267.437 de            1 LIG        0.078142
@<TRIPOS>BOND
        1  1  4  2
        2  1  6  1
        3  1  11  1
        4  2  3  2
        5  2  5  1
        6  2  33  1
        7  3  4  1
        8  3  15  1
        9  4  34  1
        10  5  6  2
        11  5  10  1
        12  6  7  1
        13  7  8  2
        14  8  9  1
        15  8  35  1
        16  9  10  2
        17  9  36  1
        18  11  12  2
        19  11  14  1
        20  12  13  1
        21  12  37  1
        22  13  27  2
        23  13  32  1
        24  14  26  2
        25  14  38  1
        26  15  16  1
        27  15  39  1
        28  16  17  2
        29  16  21  1
        30  17  18  1
        31  17  40  1
        32  18  19  2
        33  19  20  1
        34  19  41  1
        35  20  21  2
        36  20  42  1
        37  21  22  1
        38  22  23  2
        39  22  24  2
        40  22  25  1
        41  25  43  1
        42  25  44  1
        43  25  45  1
        44  26  27  1
        45  26  30  1
        46  27  28  1
        47  28  29  2
        48  28  46  1
        49  29  30  1
        50  29  47  1
        51  30  31  1
        52  31  48  1
        53  31  49  1
        54  31  50  1
        55  32  51  1
        56  32  52  1
        57  32  53  1
@<TRIPOS>SUBSTRUCTURE
       1 LIG             1 RESIDUE    0 **** ROOT      0
