@<TRIPOS>MOLECULE
LIG
38 40
SMALL
USER_CHARGES
@<TRIPOS>ATOM
      1 O1           27.564      1.562    -11.247 aa            1 LIG       -0.680186
      2 C1           27.144      0.289    -11.687 ab            1 LIG        0.196384
      3 C2           26.507      0.356    -13.076 ad            1 LIG        0.290460
      4 C3           25.026      0.598    -12.841 ae            1 LIG       -0.019199
      5 C4           24.803     -0.073    -11.501 af            1 LIG       -0.038908
      6 C5           26.015     -0.236    -10.816 ah            1 LIG       -0.039688
      7 C6           26.021     -0.769     -9.515 ai            1 LIG       -0.010598
      8 C7           24.805     -1.087     -8.904 aj            1 LIG       -0.183056
      9 C8           23.605     -0.937     -9.593 ak            1 LIG       -0.204606
     10 C9           23.601     -0.442    -10.902 an            1 LIG        0.221023
     11 O2           22.484     -0.287    -11.689 ao            1 LIG       -0.306976
     12 C10          21.243     -0.572    -11.192 ap            1 LIG        0.274246
     13 C11          20.676     -1.829    -11.401 aq            1 LIG       -0.275965
     14 C12          19.420     -2.108    -10.871 av            1 LIG        0.227938
     15 F1           18.855     -3.319    -11.059 aw            1 LIG       -0.154222
     16 C13          18.737     -1.139    -10.144 ax            1 LIG       -0.254085
     17 C14          19.284      0.131     -9.959 ay            1 LIG        0.192785
     18 C15          18.579      1.171     -9.225 az            1 LIG        0.222205
     19 C16          20.552      0.398    -10.467 bb            1 LIG       -0.251822
     20 S1           27.533     -1.063     -8.589 bc            1 LIG        0.855349
     21 O3           27.223     -2.020     -7.522 bd            1 LIG       -0.505970
     22 O4           28.587     -1.405     -9.542 bf            1 LIG       -0.505970
     23 C17          27.965      0.607     -7.810 bg            1 LIG        0.274843
     24 F2           27.913      1.571     -8.731 bh            1 LIG       -0.180304
     25 F3           27.108      0.849     -6.816 bj            1 LIG       -0.180304
     26 F4           27.053      1.294    -13.851 bk            1 LIG       -0.200113
     27 F5           26.647     -0.824    -13.679 bl            1 LIG       -0.200113
     28 N1           18.023      1.983     -8.610 bm            1 LIG       -0.363912
     29 H1           28.347      1.835    -11.753 bn            1 LIG        0.497047
     30 H2           27.984     -0.406    -11.709 bo            1 LIG        0.099886
     31 H3           24.409      0.183    -13.639 bp            1 LIG        0.074104
     32 H4           24.805      1.664    -12.778 bq            1 LIG        0.074104
     33 H5           24.782     -1.472     -7.895 bs            1 LIG        0.204617
     34 H6           22.686     -1.235     -9.110 bt            1 LIG        0.179951
     35 H7           21.209     -2.593    -11.947 bu            1 LIG        0.179417
     36 H8           17.797     -1.413     -9.704 bv            1 LIG        0.184771
     37 H9           21.013      1.353    -10.264 bw            1 LIG        0.182637
     38 H10          28.978      0.546     -7.425 bx            1 LIG        0.124232
@<TRIPOS>BOND
        1  1  2  1
        2  1  29  1
        3  2  3  1
        4  2  6  1
        5  2  30  1
        6  3  4  1
        7  3  26  1
        8  3  27  1
        9  4  5  1
        10  4  31  1
        11  4  32  1
        12  5  6  2
        13  5  10  1
        14  6  7  1
        15  7  8  2
        16  7  20  1
        17  8  9  1
        18  8  33  1
        19  9  10  2
        20  9  34  1
        21  10  11  1
        22  11  12  1
        23  12  13  2
        24  12  19  1
        25  13  14  1
        26  13  35  1
        27  14  15  1
        28  14  16  2
        29  16  17  1
        30  16  36  1
        31  17  18  1
        32  17  19  2
        33  18  28  3
        34  19  37  1
        35  20  21  2
        36  20  22  2
        37  20  23  1
        38  23  24  1
        39  23  25  1
        40  23  38  1
@<TRIPOS>SUBSTRUCTURE
       1 LIG             1 RESIDUE    0 **** ROOT      0
