@<TRIPOS>MOLECULE
LIG
54 59
SMALL
USER_CHARGES
@<TRIPOS>ATOM
      1 O1           -6.738     -5.595     13.708 aa            1 LIG       -0.586496
      2 S1           -6.411     -4.183     13.977 ab            1 LIG        0.947431
      3 O2           -7.485     -3.169     13.964 ad            1 LIG       -0.586496
      4 C1           -5.072     -3.655     12.802 ae            1 LIG       -0.096744
      5 C2           -4.509     -2.305     13.274 af            1 LIG        0.065947
      6 N1           -3.845     -2.409     14.577 ah            1 LIG       -0.401080
      7 C3           -4.802     -2.673     15.671 ai            1 LIG        0.065947
      8 C4           -5.461     -4.060     15.573 aj            1 LIG       -0.096744
      9 C5           -2.503     -2.112     14.772 ak            1 LIG        0.255462
     10 C6           -1.750     -2.847     15.682 an            1 LIG       -0.212357
     11 C7           -0.395     -2.595     15.832 ao            1 LIG       -0.210038
     12 C8            0.229     -1.579     15.104 ap            1 LIG        0.271300
     13 N2            1.609     -1.365     15.334 aq            1 LIG       -0.569937
     14 C9            2.532     -0.438     14.780 av            1 LIG        0.445834
     15 N3            2.163      0.392     13.754 aw            1 LIG       -0.554788
     16 C10           3.097      1.239     13.225 ax            1 LIG        0.211862
     17 C11           4.404      1.282     13.694 ay            1 LIG       -0.118738
     18 N4            4.742      0.492     14.759 az            1 LIG        0.062899
     19 C12           5.895      0.387     15.478 bb            1 LIG       -0.163983
     20 C13           5.599     -0.541     16.509 bc            1 LIG        0.031009
     21 N5            4.387     -1.053     16.357 bd            1 LIG       -0.516673
     22 C14           3.836     -0.395     15.323 bf            1 LIG        0.172827
     23 C15           2.625      2.153     12.120 bg            1 LIG        0.112098
     24 C16           3.541      2.643     11.168 bh            1 LIG       -0.192995
     25 C17           3.153      3.464     10.110 bj            1 LIG       -0.191331
     26 C18           1.806      3.818     10.015 bk            1 LIG        0.062504
     27 C19           0.997      4.603      9.120 bl            1 LIG       -0.012617
     28 N6           -0.244      4.610      9.519 bm            1 LIG       -0.401829
     29 N7           -0.333      3.881     10.631 bn            1 LIG       -0.021032
     30 C20           0.885      3.349     10.990 bo            1 LIG        0.071092
     31 C21           1.261      2.515     12.053 bp            1 LIG       -0.262958
     32 C22          -0.530     -0.812     14.206 bq            1 LIG       -0.210038
     33 C23          -1.887     -1.087     14.035 bs            1 LIG       -0.212357
     34 H1           -4.287     -4.412     12.793 bt            1 LIG        0.083113
     35 H2           -5.508     -3.562     11.809 bu            1 LIG        0.083113
     36 H3           -3.788     -1.971     12.524 bv            1 LIG        0.064068
     37 H4           -5.321     -1.598     13.270 bw            1 LIG        0.064068
     38 H5           -4.322     -2.566     16.646 bx            1 LIG        0.064068
     39 H6           -5.575     -1.898     15.688 by            1 LIG        0.064068
     40 H7           -4.689     -4.831     15.595 bz            1 LIG        0.083113
     41 H8           -6.159     -4.229     16.392 cb            1 LIG        0.083113
     42 H9           -2.211     -3.643     16.251 ci            1 LIG        0.138940
     43 H10           0.186     -3.193     16.520 cj            1 LIG        0.162952
     44 H11           2.009     -1.970     16.040 ck            1 LIG        0.362206
     45 H12           5.165      1.949     13.319 cm            1 LIG        0.119099
     46 H13           6.777      0.975     15.274 cn            1 LIG        0.148077
     47 H14           6.243     -0.829     17.324 ct            1 LIG        0.148277
     48 H15           4.580      2.356     11.239 cw            1 LIG        0.160160
     49 H16           3.872      3.810      9.384 da            1 LIG        0.144198
     50 H17           1.303      5.134      8.233 db            1 LIG        0.150714
     51 H18          -1.219      3.774     11.097 dc            1 LIG        0.283009
     52 H19           0.554      2.170     12.787 dd            1 LIG        0.134772
     53 H20          -0.089     -0.016     13.643 de            1 LIG        0.162952
     54 H21          -2.470     -0.496     13.347 df            1 LIG        0.138940
@<TRIPOS>BOND
        1  1  2  2
        2  2  3  2
        3  2  4  1
        4  2  8  1
        5  4  5  1
        6  4  34  1
        7  4  35  1
        8  5  6  1
        9  5  36  1
        10  5  37  1
        11  6  7  1
        12  6  9  1
        13  7  8  1
        14  7  38  1
        15  7  39  1
        16  8  40  1
        17  8  41  1
        18  9  10  2
        19  9  33  1
        20  10  11  1
        21  10  42  1
        22  11  12  2
        23  11  43  1
        24  12  13  1
        25  12  32  1
        26  13  14  1
        27  13  44  1
        28  14  15  2
        29  14  22  1
        30  15  16  1
        31  16  17  2
        32  16  23  1
        33  17  18  1
        34  17  45  1
        35  18  19  1
        36  18  22  1
        37  19  20  2
        38  19  46  1
        39  20  21  1
        40  20  47  1
        41  21  22  2
        42  23  24  2
        43  23  31  1
        44  24  25  1
        45  24  48  1
        46  25  26  2
        47  25  49  1
        48  26  27  1
        49  26  30  1
        50  27  28  2
        51  27  50  1
        52  28  29  1
        53  29  30  1
        54  29  51  1
        55  30  31  2
        56  31  52  1
        57  32  33  2
        58  32  53  1
        59  33  54  1
@<TRIPOS>SUBSTRUCTURE
       1 LIG             1 RESIDUE    0 **** ROOT      0
