@<TRIPOS>MOLECULE
LIG
37 39
SMALL
USER_CHARGES
@<TRIPOS>ATOM
      1 C1          -14.453    -14.779    -27.431 aa            1 LIG        0.162630
      2 C2          -15.142    -15.597    -26.528 ab            1 LIG        0.169220
      3 C3          -14.591    -13.399    -27.329 ad            1 LIG       -0.272447
      4 C4          -15.983    -15.041    -25.554 ae            1 LIG       -0.053735
      5 N1          -14.973    -16.977    -26.608 af            1 LIG       -0.478655
      6 C5          -15.413    -12.858    -26.344 ah            1 LIG        0.221050
      7 C6          -16.120    -13.661    -25.455 ai            1 LIG       -0.253470
      8 C7          -16.740    -15.972    -24.631 aj            1 LIG        0.634245
      9 N2          -16.434    -17.275    -24.870 ak            1 LIG       -0.405808
     10 O1          -17.563    -15.637    -23.778 an            1 LIG       -0.619397
     11 C8          -15.583    -17.799    -25.827 ao            1 LIG        0.333550
     12 C9          -15.414    -19.251    -25.968 ap            1 LIG        0.099857
     13 C10         -15.785    -20.144    -24.956 aq            1 LIG       -0.185675
     14 C11         -15.547    -21.502    -25.116 av            1 LIG       -0.189639
     15 C12         -14.958    -21.983    -26.291 aw            1 LIG        0.046433
     16 C13         -14.624    -21.099    -27.310 ax            1 LIG       -0.189639
     17 C14         -14.850    -19.747    -27.152 ay            1 LIG       -0.185675
     18 C15         -14.590    -23.456    -26.414 az            1 LIG        0.477713
     19 O2          -14.244    -23.876    -27.708 bb            1 LIG       -0.728915
     20 F1          -13.646    -15.301    -28.385 bc            1 LIG       -0.142366
     21 F2          -15.538    -11.536    -26.261 bd            1 LIG       -0.155823
     22 C16         -15.776    -24.357    -26.102 bf            1 LIG       -0.307224
     23 C17         -13.349    -23.692    -25.559 bg            1 LIG       -0.307224
     24 H1          -14.060    -12.744    -28.006 bh            1 LIG        0.195371
     25 H2          -16.758    -13.207    -24.709 bj            1 LIG        0.201594
     26 H3          -16.986    -17.924    -24.325 bk            1 LIG        0.330595
     27 H4          -16.230    -19.806    -24.032 bl            1 LIG        0.159965
     28 H5          -15.790    -22.173    -24.305 bm            1 LIG        0.161202
     29 H6          -14.152    -21.446    -28.217 bn            1 LIG        0.161202
     30 H7          -14.560    -19.092    -27.963 bo            1 LIG        0.159965
     31 H8          -14.025    -24.815    -27.675 bp            1 LIG        0.462956
     32 H9          -16.676    -24.001    -26.602 bq            1 LIG        0.083024
     33 H10         -15.968    -24.386    -25.031 bs            1 LIG        0.083024
     34 H11         -15.623    -25.396    -26.401 bt            1 LIG        0.083024
     35 H12         -12.546    -23.012    -25.840 bu            1 LIG        0.083024
     36 H13         -12.980    -24.706    -25.684 bv            1 LIG        0.083024
     37 H14         -13.550    -23.543    -24.498 bw            1 LIG        0.083024
@<TRIPOS>BOND
        1  1  2  2
        2  1  3  1
        3  1  20  1
        4  2  4  1
        5  2  5  1
        6  3  6  2
        7  3  24  1
        8  4  7  2
        9  4  8  1
        10  5  11  2
        11  6  7  1
        12  6  21  1
        13  7  25  1
        14  8  9  1
        15  8  10  2
        16  9  11  1
        17  9  26  1
        18  11  12  1
        19  12  13  2
        20  12  17  1
        21  13  14  1
        22  13  27  1
        23  14  15  2
        24  14  28  1
        25  15  16  1
        26  15  18  1
        27  16  17  2
        28  16  29  1
        29  17  30  1
        30  18  19  1
        31  18  22  1
        32  18  23  1
        33  19  31  1
        34  22  32  1
        35  22  33  1
        36  22  34  1
        37  23  35  1
        38  23  36  1
        39  23  37  1
@<TRIPOS>SUBSTRUCTURE
       1 LIG             1 RESIDUE    0 **** ROOT      0
