@<TRIPOS>MOLECULE
LIG
50 54
SMALL
USER_CHARGES
@<TRIPOS>ATOM
      1 C1           91.609     48.327    266.669 aa            1 LIG        0.281274
      2 C2           91.973     49.529    267.274 ab            1 LIG       -0.245956
      3 C3           93.285     49.783    267.676 ad            1 LIG       -0.001432
      4 C4           94.276     48.772    267.515 ae            1 LIG        0.245267
      5 C5           93.894     47.527    266.916 af            1 LIG        0.296018
      6 C6           92.566     47.336    266.487 ah            1 LIG       -0.306216
      7 C7           93.594     51.083    268.328 ai            1 LIG        0.065899
      8 C8           92.902     51.442    269.480 aj            1 LIG       -0.237158
      9 C9           93.189     52.674    270.065 ak            1 LIG        0.063031
     10 C10          94.137     53.570    269.498 an            1 LIG        0.069755
     11 C11          94.840     53.165    268.358 ao            1 LIG       -0.195407
     12 C12          94.563     51.921    267.784 ap            1 LIG       -0.183397
     13 N1           94.801     46.524    266.769 aq            1 LIG       -0.489213
     14 C13          96.066     46.742    267.196 av            1 LIG        0.171144
     15 C14          96.452     47.954    267.760 aw            1 LIG        0.164259
     16 N2           95.561     48.957    267.944 ax            1 LIG       -0.484851
     17 N3           90.274     48.123    266.312 ay            1 LIG       -0.561129
     18 C15          94.155     54.720    270.338 az            1 LIG       -0.220834
     19 C16          93.293     54.489    271.391 bb            1 LIG       -0.137769
     20 N4           92.722     53.258    271.226 bc            1 LIG        0.035890
     21 C17          91.808     52.652    272.178 bd            1 LIG       -0.190497
     22 C18          89.715     47.340    265.287 bf            1 LIG        0.149816
     23 C19          88.427     46.800    265.402 bg            1 LIG       -0.025521
     24 C20          87.890     46.085    264.320 bh            1 LIG       -0.272549
     25 C21          88.659     45.936    263.168 bj            1 LIG        0.238856
     26 N5           89.910     46.443    263.038 bk            1 LIG       -0.468883
     27 C22          90.418     47.120    264.095 bl            1 LIG        0.177627
     28 S1           87.470     46.890    266.921 bm            1 LIG        0.918575
     29 O1           86.142     46.396    266.672 bn            1 LIG       -0.547875
     30 O2           87.667     48.259    267.482 bo            1 LIG       -0.547875
     31 C23          88.376     45.675    268.037 bp            1 LIG       -0.370166
     32 H1           91.214     50.282    267.438 bq            1 LIG        0.159893
     33 H2           92.292     46.392    266.043 bs            1 LIG        0.164719
     34 H3           92.173     50.782    269.916 bt            1 LIG        0.164258
     35 H4           95.592     53.799    267.933 bu            1 LIG        0.139833
     36 H5           95.103     51.625    266.895 bv            1 LIG        0.135127
     37 H6           96.774     45.944    267.041 bw            1 LIG        0.057403
     38 H7           97.475     48.148    268.049 bx            1 LIG        0.053273
     39 H8           89.581     48.603    266.876 by            1 LIG        0.378821
     40 H9           94.787     55.603    270.191 bz            1 LIG        0.142490
     41 H10          93.040     55.071    272.277 cb            1 LIG        0.147474
     42 H11          90.858     52.440    271.672 ci            1 LIG        0.096228
     43 H12          91.648     53.358    273.000 cj            1 LIG        0.096228
     44 H13          92.261     51.727    272.571 ck            1 LIG        0.096228
     45 H14          86.905     45.645    264.375 cm            1 LIG        0.170310
     46 H15          88.275     45.385    262.325 cn            1 LIG        0.076826
     47 H16          91.409     47.529    263.969 ct            1 LIG        0.087018
     48 H17          87.858     45.624    268.992 cw            1 LIG        0.147728
     49 H18          89.399     46.013    268.179 da            1 LIG        0.147728
     50 H19          88.359     44.696    267.557 db            1 LIG        0.147728
@<TRIPOS>BOND
        1  1  2  2
        2  1  6  1
        3  1  17  1
        4  2  3  1
        5  2  32  1
        6  3  4  2
        7  3  7  1
        8  4  5  1
        9  4  16  1
        10  5  6  2
        11  5  13  1
        12  6  33  1
        13  7  8  2
        14  7  12  1
        15  8  9  1
        16  8  34  1
        17  9  10  2
        18  9  20  1
        19  10  11  1
        20  10  18  1
        21  11  12  2
        22  11  35  1
        23  12  36  1
        24  13  14  2
        25  14  15  1
        26  14  37  1
        27  15  16  2
        28  15  38  1
        29  17  22  1
        30  17  39  1
        31  18  19  2
        32  18  40  1
        33  19  20  1
        34  19  41  1
        35  20  21  1
        36  21  42  1
        37  21  43  1
        38  21  44  1
        39  22  23  2
        40  22  27  1
        41  23  24  1
        42  23  28  1
        43  24  25  2
        44  24  45  1
        45  25  26  1
        46  25  46  1
        47  26  27  2
        48  27  47  1
        49  28  29  2
        50  28  30  2
        51  28  31  1
        52  31  48  1
        53  31  49  1
        54  31  50  1
@<TRIPOS>SUBSTRUCTURE
       1 LIG             1 RESIDUE    0 **** ROOT      0
