@<TRIPOS>MOLECULE
LIG
39 42
SMALL
USER_CHARGES
@<TRIPOS>ATOM
      1 C1           14.889     -3.798      4.194 aa            1 LIG        0.223996
      2 C2           15.080     -5.325      4.241 ab            1 LIG       -0.060571
      3 C3           15.224     -5.907      2.829 ad            1 LIG       -0.051187
      4 C4           14.105     -5.415      1.882 ae            1 LIG        0.053570
      5 C5           12.711     -6.070      2.117 af            1 LIG        0.127176
      6 C6           12.758     -7.594      2.035 ah            1 LIG        0.079248
      7 C7           12.319     -8.377      3.104 ai            1 LIG       -0.194032
      8 C8           12.398     -9.767      3.020 aj            1 LIG       -0.136089
      9 C9           12.904    -10.368      1.869 ak            1 LIG       -0.137780
     10 C10          13.326     -9.594      0.796 an            1 LIG       -0.136089
     11 C11          13.251     -8.209      0.879 ao            1 LIG       -0.194032
     12 N1           11.747     -5.532      1.162 ap            1 LIG       -0.566283
     13 C12          11.794     -4.187      0.752 aq            1 LIG        0.221064
     14 C13          10.773     -3.711     -0.061 av            1 LIG       -0.217584
     15 C14          10.803     -2.403     -0.535 aw            1 LIG       -0.199570
     16 C15          11.855     -1.567     -0.164 ax            1 LIG        0.147616
     17 Cl1          11.938      0.031     -0.767 ay            1 LIG       -0.163876
     18 C16          12.856     -2.028      0.678 az            1 LIG       -0.251558
     19 C17          12.866     -3.347      1.134 bb            1 LIG       -0.029084
     20 C18          14.012     -3.873      1.981 bc            1 LIG        0.267197
     21 O1           13.806     -3.454      3.330 bd            1 LIG       -0.478750
     22 H1           15.809     -3.329      3.834 bf            1 LIG        0.015825
     23 H2           14.230     -5.785      4.747 bg            1 LIG        0.023887
     24 H3           15.961     -5.579      4.833 bh            1 LIG        0.023887
     25 H4           15.250     -6.995      2.882 bj            1 LIG        0.022243
     26 H5           16.189     -5.609      2.412 bk            1 LIG        0.022243
     27 H6           14.418     -5.633      0.861 bl            1 LIG        0.004774
     28 H7           12.362     -5.815      3.122 bm            1 LIG        0.028857
     29 H8           11.927     -7.917      3.999 bn            1 LIG        0.143036
     30 H9           12.064    -10.375      3.848 bo            1 LIG        0.142292
     31 H10          12.948    -11.446      1.802 bp            1 LIG        0.141367
     32 H11          13.694    -10.061     -0.106 bq            1 LIG        0.142292
     33 H12          13.564     -7.608      0.038 bs            1 LIG        0.143036
     34 H13          10.961     -6.129      0.949 bt            1 LIG        0.324864
     35 H14           9.948     -4.354     -0.341 bu            1 LIG        0.144973
     36 H15          10.027     -2.039     -1.192 bv            1 LIG        0.158980
     37 H16          13.676     -1.364      0.932 bw            1 LIG        0.171233
     38 H17          14.942     -3.437      1.604 bx            1 LIG        0.027004
     39 H18          14.714     -3.394      5.191 by            1 LIG        0.015825
@<TRIPOS>BOND
        1  1  2  1
        2  1  21  1
        3  1  22  1
        4  1  39  1
        5  2  3  1
        6  2  23  1
        7  2  24  1
        8  3  4  1
        9  3  25  1
        10  3  26  1
        11  4  5  1
        12  4  20  1
        13  4  27  1
        14  5  6  1
        15  5  12  1
        16  5  28  1
        17  6  7  2
        18  6  11  1
        19  7  8  1
        20  7  29  1
        21  8  9  2
        22  8  30  1
        23  9  10  1
        24  9  31  1
        25  10  11  2
        26  10  32  1
        27  11  33  1
        28  12  13  1
        29  12  34  1
        30  13  14  2
        31  13  19  1
        32  14  15  1
        33  14  35  1
        34  15  16  2
        35  15  36  1
        36  16  17  1
        37  16  18  1
        38  18  19  2
        39  18  37  1
        40  19  20  1
        41  20  21  1
        42  20  38  1
@<TRIPOS>SUBSTRUCTURE
       1 LIG             1 RESIDUE    0 **** ROOT      0
