@<TRIPOS>MOLECULE
LIG
39 41
SMALL
USER_CHARGES
@<TRIPOS>ATOM
      1 N1          -14.982    -16.885    -26.752 aa            1 LIG       -0.500290
      2 C1          -15.457    -17.737    -25.902 ab            1 LIG        0.331860
      3 N2          -16.172    -17.249    -24.829 ad            1 LIG       -0.413075
      4 C2          -16.482    -15.969    -24.520 ae            1 LIG        0.629089
      5 O1          -17.234    -15.705    -23.585 af            1 LIG       -0.637071
      6 C3          -15.303    -19.197    -26.023 ah            1 LIG        0.097702
      7 C4          -15.796    -20.049    -25.030 ai            1 LIG       -0.187404
      8 C5          -15.566    -21.410    -25.096 aj            1 LIG       -0.191612
      9 C6          -14.806    -21.951    -26.130 ak            1 LIG       -0.023253
     10 C7          -14.398    -21.120    -27.181 an            1 LIG       -0.191612
     11 C8          -14.640    -19.752    -27.123 ao            1 LIG       -0.187404
     12 C9          -14.368    -23.420    -26.012 ap            1 LIG        0.591210
     13 C10         -15.153    -15.500    -26.581 aq            1 LIG        0.235563
     14 C11         -15.844    -14.990    -25.475 av            1 LIG       -0.056417
     15 C12         -15.935    -13.616    -25.267 aw            1 LIG       -0.177221
     16 C13         -15.333    -12.748    -26.181 ax            1 LIG       -0.137476
     17 C14         -14.674    -13.248    -27.306 ay            1 LIG       -0.130817
     18 C15         -14.595    -14.627    -27.516 az            1 LIG       -0.196972
     19 C16         -13.402    -23.778    -27.166 bb            1 LIG       -0.353501
     20 C17         -15.640    -24.309    -26.002 bc            1 LIG       -0.353501
     21 C18         -13.663    -23.721    -24.694 bd            1 LIG       -0.353501
     22 H1          -16.629    -17.924    -24.231 bf            1 LIG        0.321237
     23 H2          -16.315    -19.681    -24.159 bg            1 LIG        0.152666
     24 H3          -15.916    -22.033    -24.288 bh            1 LIG        0.151191
     25 H4          -13.838    -21.500    -28.022 bj            1 LIG        0.151191
     26 H5          -14.270    -19.124    -27.923 bk            1 LIG        0.152666
     27 H6          -16.454    -13.227    -24.402 bl            1 LIG        0.168103
     28 H7          -15.378    -11.680    -26.021 bm            1 LIG        0.147407
     29 H8          -14.219    -12.564    -28.010 bn            1 LIG        0.147982
     30 H9          -14.071    -15.016    -28.376 bo            1 LIG        0.159156
     31 H10         -12.700    -22.967    -27.367 bp            1 LIG        0.072679
     32 H11         -13.940    -23.994    -28.087 bq            1 LIG        0.072679
     33 H12         -12.793    -24.655    -26.947 bs            1 LIG        0.072679
     34 H13         -16.431    -23.855    -25.405 bt            1 LIG        0.072679
     35 H14         -15.499    -25.301    -25.583 bu            1 LIG        0.072679
     36 H15         -16.026    -24.440    -27.004 bv            1 LIG        0.072679
     37 H16         -14.263    -23.373    -23.858 bw            1 LIG        0.072679
     38 H17         -12.675    -23.264    -24.638 bx            1 LIG        0.072679
     39 H18         -13.538    -24.798    -24.592 by            1 LIG        0.072679
@<TRIPOS>BOND
        1  1  2  2
        2  1  13  1
        3  2  3  1
        4  2  6  1
        5  3  4  1
        6  3  22  1
        7  4  5  2
        8  4  14  1
        9  6  7  2
        10  6  11  1
        11  7  8  1
        12  7  23  1
        13  8  9  2
        14  8  24  1
        15  9  10  1
        16  9  12  1
        17  10  11  2
        18  10  25  1
        19  11  26  1
        20  12  19  1
        21  12  20  1
        22  12  21  1
        23  13  14  2
        24  13  18  1
        25  14  15  1
        26  15  16  2
        27  15  27  1
        28  16  17  1
        29  16  28  1
        30  17  18  2
        31  17  29  1
        32  18  30  1
        33  19  31  1
        34  19  32  1
        35  19  33  1
        36  20  34  1
        37  20  35  1
        38  20  36  1
        39  21  37  1
        40  21  38  1
        41  21  39  1
@<TRIPOS>SUBSTRUCTURE
       1 LIG             1 RESIDUE    0 **** ROOT      0
