@<TRIPOS>MOLECULE
LIG
52 55
SMALL
USER_CHARGES
@<TRIPOS>ATOM
      1 C1           15.294     -4.646      7.547 aa            1 LIG        0.076162
      2 N1           14.219     -3.977      6.683 ab            1 LIG       -0.393468
      3 C2           14.717     -3.055      5.556 ad            1 LIG        0.189530
      4 C3           14.906     -3.781      4.196 ae            1 LIG        0.248275
      5 C4           15.076     -5.326      4.240 af            1 LIG       -0.072344
      6 C5           15.212     -5.910      2.828 ah            1 LIG       -0.067643
      7 C6           14.096     -5.409      1.883 ai            1 LIG        0.045278
      8 C7           12.702     -6.056      2.131 aj            1 LIG        0.121467
      9 C8           12.749     -7.572      2.032 ak            1 LIG        0.057729
     10 C9           12.312     -8.341      3.111 an            1 LIG       -0.196484
     11 C10          12.386     -9.717      3.035 ao            1 LIG       -0.215287
     12 C11          12.895    -10.317      1.905 ap            1 LIG        0.296467
     13 O1           12.935    -11.658      1.983 aq            1 LIG       -0.542535
     14 C12          13.325     -9.576      0.802 av            1 LIG       -0.215287
     15 C13          13.246     -8.188      0.875 aw            1 LIG       -0.196484
     16 N2           11.699     -5.508      1.221 ax            1 LIG       -0.552973
     17 C14          11.784     -4.176      0.781 ay            1 LIG        0.234574
     18 C15          10.770     -3.707     -0.050 az            1 LIG       -0.212345
     19 C16          10.815     -2.409     -0.545 bb            1 LIG       -0.178747
     20 C17          11.862     -1.556     -0.189 bc            1 LIG       -0.081061
     21 C18          11.911     -0.140     -0.747 bd            1 LIG        0.689333
     22 F1           10.675      0.332     -0.925 bf            1 LIG       -0.225051
     23 F2           12.566      0.689      0.066 bg            1 LIG       -0.225051
     24 F3           12.533     -0.160     -1.925 bh            1 LIG       -0.225051
     25 C19          12.859     -2.023      0.674 bj            1 LIG       -0.239171
     26 C20          12.863     -3.344      1.137 bk            1 LIG       -0.025462
     27 C21          14.012     -3.869      1.984 bl            1 LIG        0.268456
     28 O2           13.806     -3.462      3.338 bm            1 LIG       -0.481624
     29 H1           14.713     -5.341      8.157 bn            1 LIG        0.085272
     30 H2           15.772     -3.863      8.146 bo            1 LIG        0.085272
     31 H3           15.999     -5.165      6.895 bp            1 LIG        0.085272
     32 H4           13.648     -4.698      6.261 bq            1 LIG        0.314049
     33 H5           13.915     -2.315      5.498 bs            1 LIG        0.054989
     34 H6           15.627     -2.564      5.915 bt            1 LIG        0.054989
     35 H7           15.815     -3.348      3.770 bu            1 LIG        0.040297
     36 H8           15.969     -5.598      4.801 bv            1 LIG        0.035413
     37 H9           14.230     -5.798      4.744 bw            1 LIG        0.035413
     38 H10          16.181     -5.620      2.417 bx            1 LIG        0.032007
     39 H11          15.237     -6.998      2.882 by            1 LIG        0.032007
     40 H12          14.409     -5.633      0.863 bz            1 LIG        0.003058
     41 H13          12.364     -5.819      3.142 cb            1 LIG        0.049938
     42 H14          11.925     -7.898      4.014 ci            1 LIG        0.146370
     43 H15          12.063    -10.348      3.852 cj            1 LIG        0.159403
     44 H16          13.199    -12.143      1.169 ck            1 LIG        0.413719
     45 H17          13.705    -10.049     -0.094 cm            1 LIG        0.159403
     46 H18          13.568     -7.594      0.032 cn            1 LIG        0.146370
     47 H19          10.781     -5.907      1.375 ct            1 LIG        0.340103
     48 H20           9.942     -4.345     -0.321 cw            1 LIG        0.160486
     49 H21          10.030     -2.065     -1.203 da            1 LIG        0.171061
     50 H22          13.674     -1.371      0.953 db            1 LIG        0.175706
     51 H23          14.944     -3.430      1.618 dc            1 LIG        0.024151
     52 H24          13.644     -3.428      7.310 dd            1 LIG        0.314049
@<TRIPOS>BOND
        1  1  2  1
        2  1  29  1
        3  1  30  1
        4  1  31  1
        5  2  3  1
        6  2  32  1
        7  2  52  1
        8  3  4  1
        9  3  33  1
        10  3  34  1
        11  4  5  1
        12  4  28  1
        13  4  35  1
        14  5  6  1
        15  5  36  1
        16  5  37  1
        17  6  7  1
        18  6  38  1
        19  6  39  1
        20  7  8  1
        21  7  27  1
        22  7  40  1
        23  8  9  1
        24  8  16  1
        25  8  41  1
        26  9  10  2
        27  9  15  1
        28  10  11  1
        29  10  42  1
        30  11  12  2
        31  11  43  1
        32  12  13  1
        33  12  14  1
        34  13  44  1
        35  14  15  2
        36  14  45  1
        37  15  46  1
        38  16  17  1
        39  16  47  1
        40  17  18  2
        41  17  26  1
        42  18  19  1
        43  18  48  1
        44  19  20  2
        45  19  49  1
        46  20  21  1
        47  20  25  1
        48  21  22  1
        49  21  23  1
        50  21  24  1
        51  25  26  2
        52  25  50  1
        53  26  27  1
        54  27  28  1
        55  27  51  1
@<TRIPOS>SUBSTRUCTURE
       1 LIG             1 RESIDUE    0 **** ROOT      0
