@<TRIPOS>MOLECULE
LIG
63 67
SMALL
USER_CHARGES
@<TRIPOS>ATOM
      1 C1           -4.255     -3.103     13.571 aa            1 LIG        0.070504
      2 O1           -3.874     -2.353     14.717 ab            1 LIG       -0.360299
      3 C2           -2.526     -2.106     14.805 ad            1 LIG        0.187616
      4 C3           -1.750     -2.867     15.680 ae            1 LIG       -0.223199
      5 C4           -0.386     -2.611     15.815 af            1 LIG       -0.226441
      6 C5            0.222     -1.583     15.089 ah            1 LIG        0.272023
      7 N1            1.593     -1.349     15.306 ai            1 LIG       -0.561087
      8 C6            2.545     -0.469     14.754 aj            1 LIG        0.436642
      9 N2            2.218      0.355     13.719 ak            1 LIG       -0.554797
     10 C7            3.123      1.241     13.218 an            1 LIG        0.215011
     11 C8            4.421      1.304     13.717 ao            1 LIG       -0.127690
     12 N3            4.748      0.492     14.765 ap            1 LIG        0.067249
     13 C9            5.890      0.384     15.504 aq            1 LIG       -0.164844
     14 C10           5.572     -0.509     16.518 av            1 LIG        0.028647
     15 N4            4.382     -1.054     16.392 aw            1 LIG       -0.525518
     16 C11           3.833     -0.417     15.325 ax            1 LIG        0.163596
     17 C12           2.656      2.156     12.134 ay            1 LIG        0.099622
     18 C13           3.557      2.628     11.167 az            1 LIG       -0.191961
     19 C14           3.129      3.450     10.128 bb            1 LIG       -0.138779
     20 C15           1.788      3.808     10.032 bc            1 LIG       -0.180513
     21 C16           0.866      3.371     10.989 bd            1 LIG        0.014785
     22 C17           1.314      2.558     12.042 bf            1 LIG       -0.251302
     23 C18          -0.578      3.765     10.896 bg            1 LIG        0.656428
     24 O2           -1.270      3.688      9.884 bh            1 LIG       -0.610452
     25 N5           -1.045      4.219     12.059 bj            1 LIG       -0.495723
     26 C19          -2.408      4.683     12.303 bk            1 LIG        0.190805
     27 C20          -2.678      5.503     13.392 bl            1 LIG       -0.213659
     28 C21          -3.976      5.944     13.624 bm            1 LIG       -0.193862
     29 C22          -5.003      5.564     12.768 bn            1 LIG        0.101035
     30 C23          -6.403      6.040     13.019 bo            1 LIG       -0.069513
     31 C24          -6.625      7.340     12.303 bp            1 LIG        1.083443
     32 O3           -7.506      7.452     11.439 bq            1 LIG       -0.875354
     33 O4           -5.898      8.298     12.605 bs            1 LIG       -0.875354
     34 C25          -4.732      4.744     11.679 bt            1 LIG       -0.193862
     35 C26          -3.434      4.303     11.447 bu            1 LIG       -0.213659
     36 C27          -0.566     -0.826     14.211 bv            1 LIG       -0.297909
     37 C28          -1.939     -1.076     14.058 bw            1 LIG        0.201852
     38 O5           -2.699     -0.305     13.202 bx            1 LIG       -0.352820
     39 C29          -2.002      0.675     12.525 by            1 LIG        0.063679
     40 H1           -3.753     -4.071     13.551 bz            1 LIG        0.050576
     41 H2           -4.018     -2.567     12.650 cb            1 LIG        0.050576
     42 H3           -5.331     -3.281     13.589 ci            1 LIG        0.050576
     43 H4           -2.210     -3.653     16.261 cj            1 LIG        0.148721
     44 H5            0.191     -3.210     16.503 ck            1 LIG        0.139716
     45 H6            2.025     -1.886     16.047 cm            1 LIG        0.357921
     46 H7            5.170      2.003     13.372 cn            1 LIG        0.114408
     47 H8            6.766      0.974     15.290 ct            1 LIG        0.144898
     48 H9            6.209     -0.833     17.330 cw            1 LIG        0.139486
     49 H10           4.593      2.331     11.200 da            1 LIG        0.151748
     50 H11           3.834      3.794      9.384 db            1 LIG        0.139333
     51 H12           1.456      4.435      9.217 dc            1 LIG        0.168029
     52 H13           0.605      2.213     12.781 dd            1 LIG        0.133345
     53 H14          -0.512      4.299     12.914 de            1 LIG        0.286293
     54 H15          -1.879      5.798     14.059 df            1 LIG        0.144691
     55 H16          -4.186      6.583     14.472 dg            1 LIG        0.145090
     56 H17          -6.551      6.184     14.089 dh            1 LIG        0.010022
     57 H18          -7.110      5.297     12.651 di            1 LIG        0.010022
     58 H19          -5.531      4.449     11.012 dj            1 LIG        0.145090
     59 H20          -3.224      3.664     10.599 dk            1 LIG        0.144691
     60 H21          -0.155     -0.017     13.634 dl            1 LIG        0.196771
     61 H22          -2.685      1.226     11.879 dm            1 LIG        0.057884
     62 H23          -1.222      0.213     11.920 dn            1 LIG        0.057884
     63 H24          -1.548      1.359     13.242 do            1 LIG        0.057884
@<TRIPOS>BOND
        1  1  2  1
        2  1  40  1
        3  1  41  1
        4  1  42  1
        5  2  3  1
        6  3  4  2
        7  3  37  1
        8  4  5  1
        9  4  43  1
        10  5  6  2
        11  5  44  1
        12  6  7  1
        13  6  36  1
        14  7  8  1
        15  7  45  1
        16  8  9  2
        17  8  16  1
        18  9  10  1
        19  10  11  2
        20  10  17  1
        21  11  12  1
        22  11  46  1
        23  12  13  1
        24  12  16  1
        25  13  14  2
        26  13  47  1
        27  14  15  1
        28  14  48  1
        29  15  16  2
        30  17  18  2
        31  17  22  1
        32  18  19  1
        33  18  49  1
        34  19  20  2
        35  19  50  1
        36  20  21  1
        37  20  51  1
        38  21  22  2
        39  21  23  1
        40  22  52  1
        41  23  24  2
        42  23  25  1
        43  25  26  1
        44  25  53  1
        45  26  27  2
        46  26  35  1
        47  27  28  1
        48  27  54  1
        49  28  29  2
        50  28  55  1
        51  29  30  1
        52  29  34  1
        53  30  31  1
        54  30  56  1
        55  30  57  1
        56  31  32  2
        57  31  33  1
        58  34  35  2
        59  34  58  1
        60  35  59  1
        61  36  37  2
        62  36  60  1
        63  37  38  1
        64  38  39  1
        65  39  61  1
        66  39  62  1
        67  39  63  1
@<TRIPOS>SUBSTRUCTURE
       1 LIG             1 RESIDUE    0 **** ROOT      0
