@<TRIPOS>MOLECULE
LIG
53 57
SMALL
USER_CHARGES
@<TRIPOS>ATOM
      1 C1           -6.399     12.355    -12.017 aa            1 LIG        0.007813
      2 C2           -6.563     11.783    -10.736 ab            1 LIG       -0.227509
      3 C3           -7.734     10.569    -13.037 ad            1 LIG       -0.205398
      4 C4           -6.998     11.756    -13.128 ae            1 LIG       -0.190980
      5 C5           -7.825      9.997    -11.759 af            1 LIG        0.071668
      6 C6           -7.260     10.606    -10.616 ah            1 LIG        0.054937
      7 C7           -7.620      9.738     -9.522 ai            1 LIG        0.102771
      8 N1           -8.274      8.717     -9.990 aj            1 LIG       -0.418048
      9 N2           -8.412      8.848    -11.303 ak            1 LIG       -0.023386
     10 C8           -7.340      9.893     -8.032 an            1 LIG        0.035618
     11 N3           -4.545     13.862    -11.371 ao            1 LIG       -0.344197
     12 C9           -5.598     13.647    -12.181 ap            1 LIG        0.675946
     13 O1           -5.919     14.471    -13.042 aq            1 LIG       -0.609704
     14 C10          -5.959     10.485     -7.737 av            1 LIG        0.094401
     15 C11          -5.847     11.754     -7.159 aw            1 LIG       -0.193413
     16 C12          -4.591     12.302     -6.914 ax            1 LIG       -0.194548
     17 C13          -3.439     11.582     -7.237 ay            1 LIG        0.106397
     18 C14          -3.553     10.308     -7.807 az            1 LIG       -0.194548
     19 C15          -4.808      9.763     -8.056 bb            1 LIG       -0.193413
     20 C16          -2.090     12.160     -6.978 bc            1 LIG        0.035600
     21 C17          -1.739     13.413     -6.488 bd            1 LIG       -0.192853
     22 N4           -0.398     13.448     -6.431 bf            1 LIG        0.225965
     23 N5            0.187     12.349     -6.820 bg            1 LIG       -0.439356
     24 C18          -0.804     11.547     -7.177 bh            1 LIG       -0.016051
     25 C19           0.442     14.558     -5.986 bj            1 LIG       -0.203642
     26 C20          -3.704     15.041    -11.245 bk            1 LIG       -0.045430
     27 C21          -3.169     14.387     -9.971 bl            1 LIG        0.126444
     28 C22          -4.167     13.252    -10.098 bm            1 LIG       -0.045430
     29 O2           -1.834     13.916    -10.071 bn            1 LIG       -0.412186
     30 C23          -0.862     14.948    -10.150 bo            1 LIG        0.067147
     31 H1           -6.197     12.241     -9.878 bp            1 LIG        0.165475
     32 H2           -8.195     10.121    -13.898 bq            1 LIG        0.139981
     33 H3           -6.880     12.221    -14.105 bs            1 LIG        0.148722
     34 H4           -8.905      8.145    -11.837 bt            1 LIG        0.284698
     35 H5           -8.107     10.537     -7.597 bu            1 LIG        0.036574
     36 H6           -7.445      8.930     -7.534 bv            1 LIG        0.036574
     37 H7           -6.732     12.315     -6.906 bw            1 LIG        0.136257
     38 H8           -4.510     13.284     -6.475 bx            1 LIG        0.136359
     39 H9           -2.665      9.744     -8.057 by            1 LIG        0.136359
     40 H10          -4.889      8.781     -8.501 bz            1 LIG        0.136257
     41 H11          -2.330     14.263     -6.186 cb            1 LIG        0.149943
     42 H12          -0.625     10.549     -7.551 ci            1 LIG        0.142665
     43 H13          -0.168     15.407     -5.682 cj            1 LIG        0.104635
     44 H14           1.105     14.872     -6.796 ck            1 LIG        0.104635
     45 H15           1.056     14.242     -5.138 cm            1 LIG        0.104635
     46 H16          -2.955     15.293    -11.995 cn            1 LIG        0.092862
     47 H17          -4.409     15.841    -11.059 ct            1 LIG        0.092862
     48 H18          -3.275     14.975     -9.061 cw            1 LIG        0.057225
     49 H19          -5.012     13.471     -9.466 da            1 LIG        0.092862
     50 H20          -3.793     12.232    -10.036 db            1 LIG        0.092862
     51 H21           0.126     14.502    -10.251 dc            1 LIG        0.050980
     52 H22          -0.864     15.565     -9.252 dd            1 LIG        0.050980
     53 H23          -1.019     15.593    -11.017 de            1 LIG        0.050980
@<TRIPOS>BOND
        1  1  2  2
        2  1  4  1
        3  1  12  1
        4  2  6  1
        5  2  31  1
        6  3  4  2
        7  3  5  1
        8  3  32  1
        9  4  33  1
        10  5  6  2
        11  5  9  1
        12  6  7  1
        13  7  8  2
        14  7  10  1
        15  8  9  1
        16  9  34  1
        17  10  14  1
        18  10  35  1
        19  10  36  1
        20  11  12  1
        21  11  26  1
        22  11  28  1
        23  12  13  2
        24  14  15  2
        25  14  19  1
        26  15  16  1
        27  15  37  1
        28  16  17  2
        29  16  38  1
        30  17  18  1
        31  17  20  1
        32  18  19  2
        33  18  39  1
        34  19  40  1
        35  20  21  2
        36  20  24  1
        37  21  22  1
        38  21  41  1
        39  22  23  1
        40  22  25  1
        41  23  24  2
        42  24  42  1
        43  25  43  1
        44  25  44  1
        45  25  45  1
        46  26  27  1
        47  26  46  1
        48  26  47  1
        49  27  28  1
        50  27  29  1
        51  27  48  1
        52  28  49  1
        53  28  50  1
        54  29  30  1
        55  30  51  1
        56  30  52  1
        57  30  53  1
@<TRIPOS>SUBSTRUCTURE
       1 LIG             1 RESIDUE    0 **** ROOT      0
