@<TRIPOS>MOLECULE
LIG
45 47
SMALL
USER_CHARGES
@<TRIPOS>ATOM
      1 C1           25.053     33.119     50.365 aa            1 LIG       -0.309054
      2 C2           25.238     33.956     51.633 ab            1 LIG        0.284559
      3 O1           24.240     33.592     52.582 ad            1 LIG       -0.486058
      4 C3           24.428     33.810     53.897 ae            1 LIG        0.885437
      5 O2           25.439     34.326     54.376 af            1 LIG       -0.621988
      6 N1           23.310     33.350     54.580 ah            1 LIG       -0.508812
      7 C4           23.143     33.100     55.953 ai            1 LIG        0.215128
      8 C5           24.194     33.121     56.885 aj            1 LIG       -0.211296
      9 C6           23.967     32.732     58.206 ak            1 LIG       -0.136053
     10 C7           22.697     32.317     58.606 an            1 LIG       -0.203212
     11 C8           21.640     32.299     57.694 ao            1 LIG        0.089792
     12 C9           20.246     31.862     58.140 ap            1 LIG        0.028228
     13 N2           19.943     30.454     57.824 aq            1 LIG        0.046987
     14 N3           19.447     30.207     56.541 av            1 LIG       -0.389279
     15 C10          19.163     29.015     56.123 aw            1 LIG        0.210985
     16 C11          19.419     27.927     57.057 ax            1 LIG       -0.099046
     17 C12          19.911     28.157     58.295 ay            1 LIG       -0.192112
     18 C13          20.216     29.491     58.778 az            1 LIG        0.586749
     19 O3           20.646     29.692     59.917 bb            1 LIG       -0.630132
     20 C14          18.597     28.749     54.775 bc            1 LIG        0.118133
     21 C15          18.663     29.735     53.773 bd            1 LIG       -0.266390
     22 C16          18.127     29.509     52.505 bf            1 LIG        0.224178
     23 F1           18.182     30.483     51.567 bg            1 LIG       -0.161230
     24 C17          17.532     28.287     52.208 bh            1 LIG       -0.275864
     25 C18          17.462     27.296     53.180 bj            1 LIG        0.224178
     26 F2           16.872     26.112     52.899 bk            1 LIG       -0.161230
     27 C19          17.987     27.525     54.450 bl            1 LIG       -0.266390
     28 C20          21.867     32.705     56.374 bm            1 LIG       -0.269696
     29 H1           25.804     33.379     49.619 bn            1 LIG        0.089470
     30 H2           24.068     33.285     49.924 bo            1 LIG        0.089470
     31 H3           25.153     32.054     50.580 bp            1 LIG        0.089470
     32 H4           26.244     33.797     52.029 bq            1 LIG        0.030726
     33 H5           25.141     35.019     51.406 bs            1 LIG        0.030726
     34 H6           22.530     33.098     53.994 bt            1 LIG        0.312561
     35 H7           25.197     33.409     56.609 bu            1 LIG        0.139290
     36 H8           24.784     32.742     58.913 bv            1 LIG        0.147421
     37 H9           22.540     31.993     59.625 bw            1 LIG        0.144805
     38 H10          20.116     32.076     59.204 bx            1 LIG        0.083387
     39 H11          19.506     32.500     57.651 by            1 LIG        0.083387
     40 H12          19.252     26.896     56.783 bz            1 LIG        0.118474
     41 H13          20.111     27.328     58.957 cb            1 LIG        0.140385
     42 H14          19.125     30.692     53.968 ci            1 LIG        0.184481
     43 H15          17.126     28.105     51.221 cj            1 LIG        0.189067
     44 H16          17.887     26.727     55.170 ck            1 LIG        0.184481
     45 H17          21.050     32.676     55.668 cm            1 LIG        0.215886
@<TRIPOS>BOND
        1  1  2  1
        2  1  29  1
        3  1  30  1
        4  1  31  1
        5  2  3  1
        6  2  32  1
        7  2  33  1
        8  3  4  1
        9  4  5  2
        10  4  6  1
        11  6  7  1
        12  6  34  1
        13  7  8  2
        14  7  28  1
        15  8  9  1
        16  8  35  1
        17  9  10  2
        18  9  36  1
        19  10  11  1
        20  10  37  1
        21  11  12  1
        22  11  28  2
        23  12  13  1
        24  12  38  1
        25  12  39  1
        26  13  14  1
        27  13  18  1
        28  14  15  2
        29  15  16  1
        30  15  20  1
        31  16  17  2
        32  16  40  1
        33  17  18  1
        34  17  41  1
        35  18  19  2
        36  20  21  2
        37  20  27  1
        38  21  22  1
        39  21  42  1
        40  22  23  1
        41  22  24  2
        42  24  25  1
        43  24  43  1
        44  25  26  1
        45  25  27  2
        46  27  44  1
        47  28  45  1
@<TRIPOS>SUBSTRUCTURE
       1 LIG             1 RESIDUE    0 **** ROOT      0
