@<TRIPOS>MOLECULE
LIG
37 39
SMALL
USER_CHARGES
@<TRIPOS>ATOM
      1 C1          -14.489    -14.655    -27.507 aa            1 LIG       -0.196771
      2 C2          -15.078    -15.511    -26.576 ab            1 LIG        0.235538
      3 C3          -14.557    -13.273    -27.314 ad            1 LIG       -0.130578
      4 C4          -15.794    -14.985    -25.497 ae            1 LIG       -0.056127
      5 N1          -14.915    -16.895    -26.725 af            1 LIG       -0.499363
      6 C5          -15.238    -12.755    -26.210 ah            1 LIG       -0.137013
      7 C6          -15.874    -13.608    -25.303 ai            1 LIG       -0.177018
      8 C7          -16.467    -15.950    -24.552 aj            1 LIG        0.629276
      9 N2          -16.143    -17.239    -24.823 ak            1 LIG       -0.412572
     10 O1          -17.251    -15.656    -23.655 an            1 LIG       -0.635820
     11 C8          -15.412    -17.740    -25.880 ao            1 LIG        0.331802
     12 C9          -15.275    -19.202    -26.023 ap            1 LIG        0.099499
     13 C10         -15.806    -20.094    -25.081 aq            1 LIG       -0.187028
     14 C11         -15.636    -21.465    -25.238 av            1 LIG       -0.190894
     15 C12         -14.929    -21.966    -26.334 aw            1 LIG        0.042878
     16 C13         -14.422    -21.079    -27.285 ax            1 LIG       -0.190894
     17 C14         -14.595    -19.714    -27.133 ay            1 LIG       -0.187028
     18 C15         -14.588    -23.454    -26.412 az            1 LIG        0.477327
     19 O2          -14.237    -23.891    -27.700 bb            1 LIG       -0.729126
     20 C16         -15.767    -24.382    -26.081 bc            1 LIG       -0.306549
     21 C17         -13.352    -23.676    -25.538 bd            1 LIG       -0.306549
     22 H1          -13.946    -15.059    -28.349 bf            1 LIG        0.159561
     23 H2          -14.076    -12.601    -28.012 bg            1 LIG        0.148699
     24 H3          -15.268    -11.685    -26.066 bh            1 LIG        0.148231
     25 H4          -16.408    -13.202    -24.456 bj            1 LIG        0.168862
     26 H5          -16.614    -17.904    -24.224 bk            1 LIG        0.321840
     27 H6          -16.328    -19.747    -24.202 bl            1 LIG        0.155540
     28 H7          -16.014    -22.133    -24.476 bm            1 LIG        0.157566
     29 H8          -13.851    -21.436    -28.130 bn            1 LIG        0.157566
     30 H9          -14.178    -19.060    -27.887 bo            1 LIG        0.155540
     31 H10         -14.022    -24.827    -27.652 bp            1 LIG        0.461742
     32 H11         -16.678    -24.044    -26.575 bq            1 LIG        0.081977
     33 H12         -15.946    -24.428    -25.008 bs            1 LIG        0.081977
     34 H13         -15.595    -25.416    -26.385 bt            1 LIG        0.081977
     35 H14         -12.551    -22.978    -25.788 bu            1 LIG        0.081977
     36 H15         -12.957    -24.679    -25.688 bv            1 LIG        0.081977
     37 H16         -13.575    -23.558    -24.476 bw            1 LIG        0.081977
@<TRIPOS>BOND
        1  1  2  2
        2  1  3  1
        3  1  22  1
        4  2  4  1
        5  2  5  1
        6  3  6  2
        7  3  23  1
        8  4  7  2
        9  4  8  1
        10  5  11  2
        11  6  7  1
        12  6  24  1
        13  7  25  1
        14  8  9  1
        15  8  10  2
        16  9  11  1
        17  9  26  1
        18  11  12  1
        19  12  13  2
        20  12  17  1
        21  13  14  1
        22  13  27  1
        23  14  15  2
        24  14  28  1
        25  15  16  1
        26  15  18  1
        27  16  17  2
        28  16  29  1
        29  17  30  1
        30  18  19  1
        31  18  20  1
        32  18  21  1
        33  19  31  1
        34  20  32  1
        35  20  33  1
        36  20  34  1
        37  21  35  1
        38  21  36  1
        39  21  37  1
@<TRIPOS>SUBSTRUCTURE
       1 LIG             1 RESIDUE    0 **** ROOT      0
