@<TRIPOS>MOLECULE
LIG
36 38
SMALL
USER_CHARGES
@<TRIPOS>ATOM
      1 O1           27.586      1.562    -11.232 aa            1 LIG       -0.690468
      2 C1           27.149      0.297    -11.673 ab            1 LIG        0.204725
      3 C2           26.508      0.364    -13.070 ad            1 LIG        0.289091
      4 C3           25.024      0.605    -12.833 ae            1 LIG       -0.013235
      5 C4           24.800     -0.055    -11.494 af            1 LIG       -0.036630
      6 C5           26.008     -0.231    -10.813 ah            1 LIG       -0.022836
      7 C6           26.011     -0.771     -9.513 ai            1 LIG       -0.005637
      8 C7           24.803     -1.087     -8.900 aj            1 LIG       -0.187078
      9 C8           23.588     -0.933     -9.601 ak            1 LIG       -0.195731
     10 C9           23.595     -0.435    -10.896 an            1 LIG        0.220665
     11 O2           22.469     -0.290    -11.696 ao            1 LIG       -0.314224
     12 C10          21.239     -0.692    -11.261 ap            1 LIG        0.188589
     13 C11          20.385      0.226    -10.642 aq            1 LIG       -0.260477
     14 C12          19.116     -0.173    -10.228 av            1 LIG        0.081561
     15 Cl1          18.069      0.959     -9.456 aw            1 LIG       -0.112954
     16 C13          18.729     -1.497    -10.457 ax            1 LIG        0.176885
     17 N1           19.528     -2.407    -11.065 ay            1 LIG       -0.452534
     18 C14          20.767     -1.998    -11.461 az            1 LIG        0.171558
     19 S1           27.532     -1.070     -8.591 bb            1 LIG        0.872106
     20 O3           27.229     -2.020     -7.519 bc            1 LIG       -0.512871
     21 O4           28.581     -1.402     -9.545 bd            1 LIG       -0.512871
     22 C15          27.937      0.621     -7.828 bf            1 LIG        0.273408
     23 F1           27.807      1.566     -8.731 bg            1 LIG       -0.179905
     24 F2           27.092      0.817     -6.798 bh            1 LIG       -0.179905
     25 F3           27.057      1.297    -13.839 bj            1 LIG       -0.201409
     26 F4           26.639     -0.820    -13.677 bk            1 LIG       -0.201409
     27 H1           28.365      1.819    -11.748 bl            1 LIG        0.502888
     28 H2           27.980     -0.419    -11.698 bm            1 LIG        0.083260
     29 H3           24.807      1.678    -12.782 bn            1 LIG        0.069850
     30 H4           24.413      0.182    -13.621 bo            1 LIG        0.069850
     31 H5           24.777     -1.464     -7.894 bp            1 LIG        0.195223
     32 H6           22.677     -1.234     -9.118 bq            1 LIG        0.194862
     33 H7           20.700      1.244    -10.478 bs            1 LIG        0.171855
     34 H8           17.756     -1.849    -10.151 bt            1 LIG        0.094742
     35 H9           21.386     -2.742    -11.934 bu            1 LIG        0.095118
     36 H10          28.975      0.602     -7.464 bv            1 LIG        0.123937
@<TRIPOS>BOND
        1  1  2  1
        2  1  27  1
        3  2  3  1
        4  2  6  1
        5  2  28  1
        6  3  4  1
        7  3  25  1
        8  3  26  1
        9  4  5  1
        10  4  29  1
        11  4  30  1
        12  5  6  2
        13  5  10  1
        14  6  7  1
        15  7  8  2
        16  7  19  1
        17  8  9  1
        18  8  31  1
        19  9  10  2
        20  9  32  1
        21  10  11  1
        22  11  12  1
        23  12  13  2
        24  12  18  1
        25  13  14  1
        26  13  33  1
        27  14  15  1
        28  14  16  2
        29  16  17  1
        30  16  34  1
        31  17  18  2
        32  18  35  1
        33  19  20  2
        34  19  21  2
        35  19  22  1
        36  22  23  1
        37  22  24  1
        38  22  36  1
@<TRIPOS>SUBSTRUCTURE
       1 LIG             1 RESIDUE    0 **** ROOT      0
