@<TRIPOS>MOLECULE
LIG
57 59
SMALL
USER_CHARGES
@<TRIPOS>ATOM
      1 C1           24.099     34.706     49.048 aa            1 LIG       -0.114964
      2 N1           24.643     33.283     48.789 ab            1 LIG       -0.103453
      3 C2           25.854     33.345     47.829 ad            1 LIG       -0.114964
      4 C3           25.019     32.493     50.069 ae            1 LIG        0.368245
      5 C4           23.816     32.116     50.960 af            1 LIG       -0.087758
      6 C5           23.188     33.229     51.812 ah            1 LIG        0.207363
      7 O1           24.211     33.926     52.532 ai            1 LIG       -0.500681
      8 C6           24.401     33.908     53.885 aj            1 LIG        0.848525
      9 O2           25.447     34.326     54.375 ak            1 LIG       -0.592772
     10 N2           23.292     33.433     54.584 an            1 LIG       -0.503630
     11 C7           23.156     33.125     55.945 ao            1 LIG        0.208680
     12 C8           24.213     33.126     56.869 ap            1 LIG       -0.209600
     13 C9           23.990     32.724     58.185 aq            1 LIG       -0.132452
     14 C10          22.719     32.312     58.586 av            1 LIG       -0.196195
     15 C11          21.658     32.311     57.678 aw            1 LIG        0.094757
     16 C12          20.258     31.895     58.120 ax            1 LIG        0.034786
     17 N3           19.924     30.497     57.785 ay            1 LIG       -0.111591
     18 N4           19.431     30.291     56.532 az            1 LIG       -0.399304
     19 C13          19.050     29.176     56.024 bb            1 LIG        0.198940
     20 C14          19.218     27.806     56.711 bc            1 LIG       -0.067232
     21 S1           19.975     27.761     58.376 bd            1 LIG       -0.213761
     22 C15          20.218     29.529     58.758 bf            1 LIG        0.679822
     23 O3           20.647     29.790     59.885 bg            1 LIG       -0.560315
     24 C16          18.389     29.176     54.691 bh            1 LIG        0.136906
     25 C17          18.243     27.997     53.936 bj            1 LIG       -0.264063
     26 C18          17.569     28.007     52.715 bk            1 LIG        0.228809
     27 F1           17.424     26.861     52.014 bl            1 LIG       -0.153251
     28 C19          17.035     29.193     52.219 bm            1 LIG       -0.271060
     29 C20          17.174     30.372     52.944 bn            1 LIG        0.228809
     30 F2           16.647     31.525     52.474 bo            1 LIG       -0.153251
     31 C21          17.847     30.364     54.164 bp            1 LIG       -0.264063
     32 C22          21.882     32.726     56.362 bq            1 LIG       -0.270756
     33 H1           23.045     34.609     49.301 bs            1 LIG        0.116212
     34 H2           24.186     35.292     48.132 bt            1 LIG        0.116212
     35 H3           24.679     35.154     49.857 bu            1 LIG        0.116212
     36 H4           26.145     32.324     47.576 bv            1 LIG        0.116212
     37 H5           26.663     33.871     48.342 bw            1 LIG        0.116212
     38 H6           25.546     33.875     46.926 bx            1 LIG        0.116212
     39 H7           25.447     31.565     49.690 by            1 LIG       -0.025628
     40 H8           25.799     33.049     50.595 bz            1 LIG       -0.025628
     41 H9           23.044     31.628     50.365 cb            1 LIG        0.079587
     42 H10          24.176     31.366     51.660 ci            1 LIG        0.079587
     43 H11          22.645     33.929     51.189 cj            1 LIG        0.045593
     44 H12          22.424     32.788     52.452 ck            1 LIG        0.045593
     45 H13          22.466     33.275     54.032 cm            1 LIG        0.311839
     46 H14          25.215     33.416     56.594 cn            1 LIG        0.141064
     47 H15          24.809     32.723     58.890 ct            1 LIG        0.158411
     48 H16          22.561     31.984     59.601 cw            1 LIG        0.156122
     49 H17          20.121     32.115     59.182 da            1 LIG        0.079829
     50 H18          19.535     32.554     57.636 db            1 LIG        0.079829
     51 H19          19.852     27.163     56.098 dc            1 LIG        0.114024
     52 H20          18.247     27.317     56.797 dd            1 LIG        0.114024
     53 H21          18.628     27.047     54.275 de            1 LIG        0.186351
     54 H22          16.508     29.194     51.277 df            1 LIG        0.198638
     55 H23          17.922     31.295     54.707 dg            1 LIG        0.186351
     56 H24          21.059     32.712     55.661 dh            1 LIG        0.211090
     57 H25          23.919     32.759     48.312 di            1 LIG        0.215527
@<TRIPOS>BOND
        1  1  2  1
        2  1  33  1
        3  1  34  1
        4  1  35  1
        5  2  3  1
        6  2  4  1
        7  2  57  1
        8  3  36  1
        9  3  37  1
        10  3  38  1
        11  4  5  1
        12  4  39  1
        13  4  40  1
        14  5  6  1
        15  5  41  1
        16  5  42  1
        17  6  7  1
        18  6  43  1
        19  6  44  1
        20  7  8  1
        21  8  9  2
        22  8  10  1
        23  10  11  1
        24  10  45  1
        25  11  12  2
        26  11  32  1
        27  12  13  1
        28  12  46  1
        29  13  14  2
        30  13  47  1
        31  14  15  1
        32  14  48  1
        33  15  16  1
        34  15  32  2
        35  16  17  1
        36  16  49  1
        37  16  50  1
        38  17  18  1
        39  17  22  1
        40  18  19  2
        41  19  20  1
        42  19  24  1
        43  20  21  1
        44  20  51  1
        45  20  52  1
        46  21  22  1
        47  22  23  2
        48  24  25  2
        49  24  31  1
        50  25  26  1
        51  25  53  1
        52  26  27  1
        53  26  28  2
        54  28  29  1
        55  28  54  1
        56  29  30  1
        57  29  31  2
        58  31  55  1
        59  32  56  1
@<TRIPOS>SUBSTRUCTURE
       1 LIG             1 RESIDUE    0 **** ROOT      0
