@<TRIPOS>MOLECULE
LIG
64 67
SMALL
USER_CHARGES
@<TRIPOS>ATOM
      1 C1           14.683     -7.301     11.723 aa            1 LIG       -0.309961
      2 N1           15.277     -5.932     11.317 ab            1 LIG        0.124681
      3 C2           15.930     -5.253     12.535 ad            1 LIG       -0.309961
      4 C3           16.292     -6.037     10.153 ae            1 LIG        0.033021
      5 C4           15.599     -6.569      8.889 af            1 LIG       -0.044769
      6 C5           14.554     -5.543      8.400 ah            1 LIG       -0.103224
      7 C6           15.184     -4.545      7.446 ai            1 LIG        0.645349
      8 O1           16.386     -4.359      7.389 aj            1 LIG       -0.586948
      9 N2           14.289     -3.927      6.644 ak            1 LIG       -0.529359
     10 C7           14.688     -3.059      5.555 an            1 LIG        0.028079
     11 C8           14.904     -3.768      4.192 ao            1 LIG        0.250239
     12 C9           15.083     -5.315      4.239 ap            1 LIG       -0.067826
     13 C10          15.220     -5.908      2.830 aq            1 LIG       -0.060391
     14 C11          14.106     -5.413      1.883 av            1 LIG        0.051023
     15 C12          12.713     -6.066      2.123 aw            1 LIG        0.122938
     16 C13          12.758     -7.591      2.035 ax            1 LIG        0.073650
     17 C14          12.324     -8.377      3.107 ay            1 LIG       -0.192937
     18 C15          12.402     -9.765      3.022 az            1 LIG       -0.133868
     19 C16          12.906    -10.368      1.871 bb            1 LIG       -0.133894
     20 C17          13.327     -9.591      0.797 bc            1 LIG       -0.133868
     21 C18          13.250     -8.207      0.880 bd            1 LIG       -0.192937
     22 N3           11.749     -5.514      1.171 bf            1 LIG       -0.546086
     23 C19          11.812     -4.155      0.787 bg            1 LIG        0.160713
     24 C20          10.799     -3.643     -0.025 bh            1 LIG        0.138751
     25 F1            9.745     -4.394     -0.309 bj            1 LIG       -0.170725
     26 C21          10.839     -2.362     -0.527 bk            1 LIG       -0.266407
     27 C22          11.886     -1.529     -0.166 bl            1 LIG        0.139036
     28 Br1          11.957      0.243     -0.827 bm            1 LIG       -0.137783
     29 C23          12.890     -2.007      0.680 bn            1 LIG       -0.255808
     30 C24          12.888     -3.330      1.134 bo            1 LIG       -0.029603
     31 C25          14.030     -3.870      1.979 bp            1 LIG        0.275771
     32 O2           13.810     -3.460      3.327 bq            1 LIG       -0.506594
     33 H1           15.539     -7.936     11.968 bs            1 LIG        0.161981
     34 H2           14.101     -7.718     10.900 bt            1 LIG        0.161981
     35 H3           14.003     -7.156     12.562 bu            1 LIG        0.161981
     36 H4           16.761     -5.904     12.822 bv            1 LIG        0.161981
     37 H5           15.166     -5.191     13.315 bw            1 LIG        0.161981
     38 H6           16.275     -4.262     12.225 bx            1 LIG        0.161981
     39 H7           16.681     -5.022      9.992 by            1 LIG        0.061301
     40 H8           17.109     -6.677     10.499 bz            1 LIG        0.061301
     41 H9           16.351     -6.805      8.137 cb            1 LIG        0.070662
     42 H10          15.124     -7.541      9.023 ci            1 LIG        0.070662
     43 H11          13.745     -6.059      7.890 cj            1 LIG        0.034380
     44 H12          14.079     -4.976      9.204 ck            1 LIG        0.034380
     45 H13          13.318     -4.124      6.785 cm            1 LIG        0.311366
     46 H14          13.911     -2.301      5.476 cn            1 LIG        0.070973
     47 H15          15.598     -2.517      5.828 ct            1 LIG        0.070973
     48 H16          15.808     -3.318      3.778 cw            1 LIG        0.028668
     49 H17          15.963     -5.582      4.824 da            1 LIG        0.037073
     50 H18          14.235     -5.782      4.744 db            1 LIG        0.037073
     51 H19          16.187     -5.611      2.418 dc            1 LIG        0.028591
     52 H20          15.248     -6.995      2.890 dd            1 LIG        0.028591
     53 H21          14.421     -5.638      0.863 de            1 LIG        0.002789
     54 H22          12.366     -5.815      3.128 df            1 LIG        0.043700
     55 H23          11.933     -7.916      4.003 dg            1 LIG        0.139974
     56 H24          12.069    -10.374      3.851 dh            1 LIG        0.148991
     57 H25          12.950    -11.445      1.804 di            1 LIG        0.150218
     58 H26          13.694    -10.060     -0.104 dj            1 LIG        0.148991
     59 H27          13.564     -7.608      0.038 dk            1 LIG        0.139974
     60 H28          10.920     -6.073      1.026 dl            1 LIG        0.351578
     61 H29          10.043     -2.019     -1.180 dm            1 LIG        0.180638
     62 H30          13.701     -1.347      0.939 dn            1 LIG        0.170802
     63 H31          14.957     -3.436      1.602 do            1 LIG        0.017051
     64 H32          14.505     -5.330     11.009 dp            1 LIG        0.257107
@<TRIPOS>BOND
        1  1  2  1
        2  1  33  1
        3  1  34  1
        4  1  35  1
        5  2  3  1
        6  2  4  1
        7  2  64  1
        8  3  36  1
        9  3  37  1
        10  3  38  1
        11  4  5  1
        12  4  39  1
        13  4  40  1
        14  5  6  1
        15  5  41  1
        16  5  42  1
        17  6  7  1
        18  6  43  1
        19  6  44  1
        20  7  8  2
        21  7  9  1
        22  9  10  1
        23  9  45  1
        24  10  11  1
        25  10  46  1
        26  10  47  1
        27  11  12  1
        28  11  32  1
        29  11  48  1
        30  12  13  1
        31  12  49  1
        32  12  50  1
        33  13  14  1
        34  13  51  1
        35  13  52  1
        36  14  15  1
        37  14  31  1
        38  14  53  1
        39  15  16  1
        40  15  22  1
        41  15  54  1
        42  16  17  2
        43  16  21  1
        44  17  18  1
        45  17  55  1
        46  18  19  2
        47  18  56  1
        48  19  20  1
        49  19  57  1
        50  20  21  2
        51  20  58  1
        52  21  59  1
        53  22  23  1
        54  22  60  1
        55  23  24  2
        56  23  30  1
        57  24  25  1
        58  24  26  1
        59  26  27  2
        60  26  61  1
        61  27  28  1
        62  27  29  1
        63  29  30  2
        64  29  62  1
        65  30  31  1
        66  31  32  1
        67  31  63  1
@<TRIPOS>SUBSTRUCTURE
       1 LIG             1 RESIDUE    0 **** ROOT      0
