@<TRIPOS>MOLECULE
LIG
37 39
SMALL
USER_CHARGES
@<TRIPOS>ATOM
      1 O1           27.627      1.539    -11.120 aa            1 LIG       -0.683055
      2 C1           27.156      0.304    -11.646 ab            1 LIG        0.200183
      3 C2           26.522      0.381    -13.046 ad            1 LIG        0.289259
      4 C3           25.033      0.596    -12.836 ae            1 LIG       -0.014937
      5 C4           24.809     -0.075    -11.495 af            1 LIG       -0.043078
      6 C5           26.018     -0.234    -10.802 ah            1 LIG       -0.036324
      7 C6           26.022     -0.765     -9.500 ai            1 LIG       -0.016246
      8 C7           24.802     -1.084     -8.898 aj            1 LIG       -0.189096
      9 C8           23.604     -0.928     -9.587 ak            1 LIG       -0.198627
     10 C9           23.603     -0.427    -10.895 an            1 LIG        0.214756
     11 O2           22.485     -0.277    -11.682 ao            1 LIG       -0.315570
     12 C10          21.245     -0.572    -11.188 ap            1 LIG        0.276579
     13 C11          20.675     -1.826    -11.402 aq            1 LIG       -0.281817
     14 C12          19.421     -2.110    -10.874 av            1 LIG        0.226401
     15 F1           18.854     -3.315    -11.068 aw            1 LIG       -0.156819
     16 C13          18.737     -1.145    -10.142 ax            1 LIG       -0.257140
     17 C14          19.285      0.125     -9.960 ay            1 LIG        0.191685
     18 C15          18.578      1.165     -9.236 az            1 LIG        0.222174
     19 C16          20.552      0.394    -10.462 bb            1 LIG       -0.254459
     20 S1           27.532     -1.060     -8.570 bc            1 LIG        1.116357
     21 O3           27.215     -1.986     -7.481 bd            1 LIG       -0.552825
     22 O4           28.605     -1.379     -9.508 bf            1 LIG       -0.552825
     23 N1           27.935      0.472     -7.861 bg            1 LIG       -0.854570
     24 F2           27.065      1.318    -13.822 bh            1 LIG       -0.200216
     25 F3           26.666     -0.798    -13.656 bj            1 LIG       -0.200216
     26 N2           18.023      1.994     -8.652 bk            1 LIG       -0.367072
     27 H1           28.355      1.865    -11.677 bl            1 LIG        0.496722
     28 H2           27.978     -0.409    -11.706 bm            1 LIG        0.104505
     29 H3           24.424      0.189    -13.646 bn            1 LIG        0.066099
     30 H4           24.801      1.659    -12.770 bo            1 LIG        0.066099
     31 H5           24.776     -1.482     -7.895 bp            1 LIG        0.187627
     32 H6           22.685     -1.232     -9.107 bq            1 LIG        0.188705
     33 H7           21.212     -2.590    -11.943 bs            1 LIG        0.173326
     34 H8           17.801     -1.426     -9.704 bt            1 LIG        0.182328
     35 H9           21.009      1.350    -10.268 bu            1 LIG        0.181590
     36 H10          27.253      0.793     -7.173 bv            1 LIG        0.395248
     37 H11          28.176      1.177     -8.562 bw            1 LIG        0.395248
@<TRIPOS>BOND
        1  1  2  1
        2  1  27  1
        3  2  3  1
        4  2  6  1
        5  2  28  1
        6  3  4  1
        7  3  24  1
        8  3  25  1
        9  4  5  1
        10  4  29  1
        11  4  30  1
        12  5  6  2
        13  5  10  1
        14  6  7  1
        15  7  8  2
        16  7  20  1
        17  8  9  1
        18  8  31  1
        19  9  10  2
        20  9  32  1
        21  10  11  1
        22  11  12  1
        23  12  13  2
        24  12  19  1
        25  13  14  1
        26  13  33  1
        27  14  15  1
        28  14  16  2
        29  16  17  1
        30  16  34  1
        31  17  18  1
        32  17  19  2
        33  18  26  3
        34  19  35  1
        35  20  21  2
        36  20  22  2
        37  20  23  1
        38  23  36  1
        39  23  37  1
@<TRIPOS>SUBSTRUCTURE
       1 LIG             1 RESIDUE    0 **** ROOT      0
