@<TRIPOS>MOLECULE
LIG
42 44
SMALL
USER_CHARGES
@<TRIPOS>ATOM
      1 C1           25.116     34.089     51.593 aa            1 LIG        0.062151
      2 O1           24.130     33.737     52.553 ab            1 LIG       -0.458666
      3 C2           24.382     33.857     53.867 ad            1 LIG        0.882623
      4 O2           25.421     34.325     54.339 ae            1 LIG       -0.620416
      5 N1           23.285     33.370     54.561 af            1 LIG       -0.507889
      6 C3           23.145     33.103     55.932 ah            1 LIG        0.215055
      7 C4           24.213     33.121     56.843 ai            1 LIG       -0.211365
      8 C5           24.013     32.726     58.165 aj            1 LIG       -0.135778
      9 C6           22.754     32.301     58.586 ak            1 LIG       -0.203225
     10 C7           21.677     32.290     57.694 an            1 LIG        0.090403
     11 C8           20.291     31.864     58.174 ao            1 LIG        0.028044
     12 N2           19.960     30.456     57.872 ap            1 LIG        0.047147
     13 N3           19.474     30.200     56.584 aq            1 LIG       -0.389708
     14 C9           19.191     29.003     56.172 av            1 LIG        0.210992
     15 C10          19.402     27.927     57.128 aw            1 LIG       -0.099042
     16 C11          19.870     28.169     58.374 ax            1 LIG       -0.191427
     17 C12          20.202     29.503     58.840 ay            1 LIG        0.587382
     18 O3           20.643     29.702     59.976 az            1 LIG       -0.628880
     19 C13          18.688     28.718     54.804 bb            1 LIG        0.118138
     20 C14          18.891     29.652     53.773 bc            1 LIG       -0.266609
     21 C15          18.452     29.396     52.474 bd            1 LIG        0.224106
     22 F1           18.654     30.313     51.502 bf            1 LIG       -0.161271
     23 C16          17.811     28.197     52.176 bg            1 LIG       -0.276052
     24 C17          17.597     27.258     53.182 bh            1 LIG        0.224106
     25 F2           16.968     26.096     52.898 bj            1 LIG       -0.161271
     26 C18          18.028     27.520     54.483 bk            1 LIG       -0.266609
     27 C19          21.877     32.703     56.372 bl            1 LIG       -0.270260
     28 H1           24.718     33.967     50.587 bm            1 LIG        0.070959
     29 H2           25.998     33.454     51.687 bn            1 LIG        0.070959
     30 H3           25.427     35.126     51.711 bo            1 LIG        0.070959
     31 H4           22.493     33.121     53.984 bp            1 LIG        0.313262
     32 H5           25.212     33.407     56.551 bq            1 LIG        0.139336
     33 H6           24.845     32.731     58.855 bs            1 LIG        0.147833
     34 H7           22.617     31.977     59.607 bt            1 LIG        0.144542
     35 H8           20.199     32.082     59.239 bu            1 LIG        0.083714
     36 H9           19.542     32.511     57.710 bv            1 LIG        0.083714
     37 H10          19.212     26.896     56.867 bw            1 LIG        0.118337
     38 H11          20.025     27.344     59.054 bx            1 LIG        0.141309
     39 H12          19.402     30.585     53.965 by            1 LIG        0.184666
     40 H13          17.487     27.992     51.167 bz            1 LIG        0.188814
     41 H14          17.830     26.762     55.227 cb            1 LIG        0.184666
     42 H15          21.046     32.682     55.680 ci            1 LIG        0.215248
@<TRIPOS>BOND
        1  1  2  1
        2  1  28  1
        3  1  29  1
        4  1  30  1
        5  2  3  1
        6  3  4  2
        7  3  5  1
        8  5  6  1
        9  5  31  1
        10  6  7  2
        11  6  27  1
        12  7  8  1
        13  7  32  1
        14  8  9  2
        15  8  33  1
        16  9  10  1
        17  9  34  1
        18  10  11  1
        19  10  27  2
        20  11  12  1
        21  11  35  1
        22  11  36  1
        23  12  13  1
        24  12  17  1
        25  13  14  2
        26  14  15  1
        27  14  19  1
        28  15  16  2
        29  15  37  1
        30  16  17  1
        31  16  38  1
        32  17  18  2
        33  19  20  2
        34  19  26  1
        35  20  21  1
        36  20  39  1
        37  21  22  1
        38  21  23  2
        39  23  24  1
        40  23  40  1
        41  24  25  1
        42  24  26  2
        43  26  41  1
        44  27  42  1
@<TRIPOS>SUBSTRUCTURE
       1 LIG             1 RESIDUE    0 **** ROOT      0
