@<TRIPOS>MOLECULE
LIG
60 64
SMALL
USER_CHARGES
@<TRIPOS>ATOM
      1 C1           -4.255     -3.103     13.571 aa            1 LIG        0.070475
      2 O1           -3.874     -2.353     14.717 ab            1 LIG       -0.359447
      3 C2           -2.526     -2.106     14.805 ad            1 LIG        0.186737
      4 C3           -1.750     -2.867     15.680 ae            1 LIG       -0.224709
      5 C4           -0.386     -2.611     15.815 af            1 LIG       -0.227609
      6 C5            0.222     -1.583     15.089 ah            1 LIG        0.270437
      7 N1            1.593     -1.349     15.306 ai            1 LIG       -0.555325
      8 C6            2.545     -0.469     14.754 aj            1 LIG        0.426073
      9 N2            2.218      0.355     13.719 ak            1 LIG       -0.560659
     10 C7            3.123      1.241     13.218 an            1 LIG        0.221637
     11 C8            4.421      1.304     13.717 ao            1 LIG       -0.137094
     12 N3            4.748      0.492     14.765 ap            1 LIG        0.071808
     13 C9            5.890      0.384     15.504 aq            1 LIG       -0.165955
     14 C10           5.572     -0.509     16.518 av            1 LIG        0.026496
     15 N4            4.382     -1.054     16.392 aw            1 LIG       -0.528257
     16 C11           3.833     -0.417     15.325 ax            1 LIG        0.166703
     17 C12           2.656      2.156     12.134 ay            1 LIG        0.094547
     18 C13           3.557      2.628     11.167 az            1 LIG       -0.187395
     19 C14           3.129      3.450     10.128 bb            1 LIG       -0.137702
     20 C15           1.788      3.808     10.032 bc            1 LIG       -0.178122
     21 C16           0.866      3.371     10.989 bd            1 LIG        0.018909
     22 C17           1.314      2.558     12.042 bf            1 LIG       -0.249451
     23 C18          -0.578      3.765     10.896 bg            1 LIG        0.662928
     24 O2           -1.261      3.718      9.877 bh            1 LIG       -0.570649
     25 N5           -1.055      4.183     12.068 bj            1 LIG       -0.496929
     26 C19          -2.421      4.636     12.315 bk            1 LIG        0.195030
     27 C20          -2.702      5.423     13.426 bl            1 LIG       -0.219992
     28 C21          -4.003      5.854     13.661 bm            1 LIG       -0.146143
     29 C22          -5.021      5.499     12.785 bn            1 LIG       -0.190415
     30 C23          -4.740      4.712     11.674 bo            1 LIG        0.017736
     31 C24          -3.440      4.281     11.439 bp            1 LIG       -0.252501
     32 C25          -5.840      4.329     10.729 bq            1 LIG        1.089884
     33 O3           -5.612      3.628      9.732 bs            1 LIG       -0.878791
     34 O4           -6.985      4.735     10.977 bt            1 LIG       -0.878791
     35 C26          -0.566     -0.826     14.211 bu            1 LIG       -0.300230
     36 C27          -1.939     -1.076     14.058 bv            1 LIG        0.201567
     37 O5           -2.699     -0.305     13.202 bw            1 LIG       -0.352105
     38 C28          -2.002      0.675     12.525 bx            1 LIG        0.064051
     39 H1           -3.753     -4.071     13.551 by            1 LIG        0.050325
     40 H2           -4.018     -2.567     12.650 bz            1 LIG        0.050325
     41 H3           -5.331     -3.281     13.589 cb            1 LIG        0.050325
     42 H4           -2.210     -3.653     16.261 ci            1 LIG        0.146757
     43 H5            0.191     -3.210     16.503 cj            1 LIG        0.137506
     44 H6            2.025     -1.886     16.047 ck            1 LIG        0.356584
     45 H7            5.170      2.003     13.372 cm            1 LIG        0.109581
     46 H8            6.766      0.974     15.290 cn            1 LIG        0.140988
     47 H9            6.209     -0.833     17.330 ct            1 LIG        0.136331
     48 H10           4.593      2.331     11.200 cw            1 LIG        0.149845
     49 H11           3.834      3.794      9.384 da            1 LIG        0.141910
     50 H12           1.456      4.435      9.217 db            1 LIG        0.168234
     51 H13           0.605      2.213     12.781 dc            1 LIG        0.136986
     52 H14          -0.530      4.238     12.929 dd            1 LIG        0.284869
     53 H15          -1.909      5.699     14.108 de            1 LIG        0.105311
     54 H16          -4.222      6.466     14.525 df            1 LIG        0.117511
     55 H17          -6.034      5.835     12.968 dg            1 LIG        0.153968
     56 H18          -3.221      3.668     10.574 dh            1 LIG        0.204153
     57 H19          -0.155     -0.017     13.634 di            1 LIG        0.197900
     58 H20          -2.685      1.226     11.879 dj            1 LIG        0.057948
     59 H21          -1.222      0.213     11.920 dk            1 LIG        0.057948
     60 H22          -1.548      1.359     13.242 dl            1 LIG        0.057948
@<TRIPOS>BOND
        1  1  2  1
        2  1  39  1
        3  1  40  1
        4  1  41  1
        5  2  3  1
        6  3  4  2
        7  3  36  1
        8  4  5  1
        9  4  42  1
        10  5  6  2
        11  5  43  1
        12  6  7  1
        13  6  35  1
        14  7  8  1
        15  7  44  1
        16  8  9  2
        17  8  16  1
        18  9  10  1
        19  10  11  2
        20  10  17  1
        21  11  12  1
        22  11  45  1
        23  12  13  1
        24  12  16  1
        25  13  14  2
        26  13  46  1
        27  14  15  1
        28  14  47  1
        29  15  16  2
        30  17  18  2
        31  17  22  1
        32  18  19  1
        33  18  48  1
        34  19  20  2
        35  19  49  1
        36  20  21  1
        37  20  50  1
        38  21  22  2
        39  21  23  1
        40  22  51  1
        41  23  24  2
        42  23  25  1
        43  25  26  1
        44  25  52  1
        45  26  27  2
        46  26  31  1
        47  27  28  1
        48  27  53  1
        49  28  29  2
        50  28  54  1
        51  29  30  1
        52  29  55  1
        53  30  31  2
        54  30  32  1
        55  31  56  1
        56  32  33  2
        57  32  34  1
        58  35  36  2
        59  35  57  1
        60  36  37  1
        61  37  38  1
        62  38  58  1
        63  38  59  1
        64  38  60  1
@<TRIPOS>SUBSTRUCTURE
       1 LIG             1 RESIDUE    0 **** ROOT      0
