@<TRIPOS>MOLECULE
LIG
43 45
SMALL
USER_CHARGES
@<TRIPOS>ATOM
      1 N1           24.543     41.411      2.955 aa            1 LIG       -0.500003
      2 C1           25.764     40.599      3.089 ab            1 LIG        0.061705
      3 C2           26.879     41.417      3.767 ad            1 LIG       -0.137887
      4 C3           27.201     42.713      3.003 ae            1 LIG        0.696999
      5 C4           25.894     43.489      2.737 af            1 LIG       -0.137887
      6 C5           24.805     42.591      2.111 ah            1 LIG        0.061705
      7 C6           21.014     40.717      4.951 ai            1 LIG       -0.098953
      8 C7           21.168     41.779      4.078 aj            1 LIG        0.233188
      9 N2           22.325     42.038      3.427 ak            1 LIG       -0.632280
     10 C8           23.366     41.202      3.684 an            1 LIG        0.781661
     11 N3           23.323     40.165      4.561 ao            1 LIG       -0.653196
     12 C9           22.145     39.925      5.186 ap            1 LIG        0.599803
     13 N4           22.094     38.855      6.074 aq            1 LIG       -0.961994
     14 N5           28.081     43.595      3.910 av            1 LIG       -1.081057
     15 C10          27.974     42.421      1.694 aw            1 LIG       -0.388587
     16 H1           26.083     40.278      2.096 ax            1 LIG        0.074554
     17 H2           25.598     39.679      3.648 ay            1 LIG        0.074554
     18 H3           26.528     41.651      4.762 az            1 LIG        0.055698
     19 H4           27.769     40.803      3.892 bb            1 LIG        0.055698
     20 H5           25.481     43.920      3.650 bc            1 LIG        0.055698
     21 H6           26.084     44.346      2.090 bd            1 LIG        0.055698
     22 H7           25.098     42.241      1.121 bf            1 LIG        0.074554
     23 H8           23.919     43.207      1.950 bg            1 LIG        0.074554
     24 H9           28.971     43.154      4.099 bh            1 LIG        0.468897
     25 H10          28.890     41.854      1.881 bj            1 LIG        0.111041
     26 H11          28.245     43.337      1.166 bk            1 LIG        0.111041
     27 H12          27.386     41.825      0.992 bl            1 LIG        0.111041
     28 H13          28.245     44.480      3.432 bm            1 LIG        0.468897
     29 H14          22.953     38.353      6.281 bn            1 LIG        0.425755
     30 H15          20.346     42.459      3.902 bo            1 LIG        0.060852
     31 H16          21.240     38.663      6.573 bp            1 LIG        0.425755
     32 C11          19.701     40.477      5.548 bq            1 LIG        0.062772
     33 C12          18.544     40.019      4.942 bs            1 LIG       -0.201866
     34 C13          17.470     39.992      5.825 bt            1 LIG       -0.171194
     35 C14          17.795     40.435      7.099 bu            1 LIG        0.028644
     36 S1           19.474     40.810      7.220 bv            1 LIG       -0.100268
     37 H17          18.477     39.710      3.911 bw            1 LIG        0.145784
     38 H18          16.483     39.665      5.534 bx            1 LIG        0.153215
     39 C15          16.903     40.602      8.276 by            1 LIG       -0.211899
     40 H19          16.794     41.646      8.578 bz            1 LIG        0.092803
     41 H20          17.287     40.043      9.125 cb            1 LIG        0.092803
     42 H21          15.919     40.208      8.027 ci            1 LIG        0.092803
     43 H22          27.632     43.803      4.793 cj            1 LIG        0.468897
@<TRIPOS>BOND
        1  1  2  1
        2  1  6  1
        3  1  10  1
        4  2  3  1
        5  2  16  1
        6  2  17  1
        7  3  4  1
        8  3  18  1
        9  3  19  1
        10  4  5  1
        11  4  14  1
        12  4  15  1
        13  5  6  1
        14  5  20  1
        15  5  21  1
        16  6  22  1
        17  6  23  1
        18  7  8  2
        19  7  12  1
        20  7  32  1
        21  8  9  1
        22  8  30  1
        23  9  10  2
        24  10  11  1
        25  11  12  2
        26  12  13  1
        27  13  29  1
        28  13  31  1
        29  14  24  1
        30  14  28  1
        31  14  43  1
        32  15  25  1
        33  15  26  1
        34  15  27  1
        35  32  33  2
        36  32  36  1
        37  33  34  1
        38  33  37  1
        39  34  35  2
        40  34  38  1
        41  35  36  1
        42  35  39  1
        43  39  40  1
        44  39  41  1
        45  39  42  1
@<TRIPOS>SUBSTRUCTURE
       1 LIG             1 RESIDUE    0 **** ROOT      0
