@<TRIPOS>MOLECULE
LIG
40 42
SMALL
USER_CHARGES
@<TRIPOS>ATOM
      1 C1          -14.630    -14.611    -27.581 aa            1 LIG        0.092481
      2 C2          -15.156    -15.483    -26.611 ab            1 LIG        0.174972
      3 C3          -14.706    -13.230    -27.368 ad            1 LIG       -0.194032
      4 C4          -15.818    -14.959    -25.492 ae            1 LIG       -0.058050
      5 N1          -14.997    -16.877    -26.748 af            1 LIG       -0.497967
      6 C5          -15.327    -12.723    -26.228 ah            1 LIG       -0.138732
      7 C6          -15.905    -13.583    -25.294 ai            1 LIG       -0.182798
      8 C7          -16.424    -15.921    -24.498 aj            1 LIG        0.629142
      9 N2          -16.073    -17.206    -24.758 ak            1 LIG       -0.412939
     10 O1          -17.182    -15.620    -23.577 an            1 LIG       -0.637434
     11 C8          -15.415    -17.718    -25.858 ao            1 LIG        0.329647
     12 C9          -15.257    -19.184    -25.994 ap            1 LIG        0.099531
     13 C10         -14.632    -19.704    -27.136 aq            1 LIG       -0.187264
     14 C11         -14.450    -21.071    -27.287 av            1 LIG       -0.191121
     15 C12         -14.884    -21.960    -26.303 aw            1 LIG        0.042127
     16 C13         -15.528    -21.450    -25.168 ax            1 LIG       -0.191121
     17 C14         -15.717    -20.078    -25.016 ay            1 LIG       -0.187264
     18 C15         -14.583    -23.464    -26.424 az            1 LIG        0.477194
     19 O2          -14.226    -23.880    -27.727 bb            1 LIG       -0.729139
     20 C16         -15.805    -24.338    -26.136 bc            1 LIG       -0.306507
     21 C17         -13.401    -23.802    -25.513 bd            1 LIG       -0.306507
     22 C18         -13.937    -15.126    -28.838 bf            1 LIG       -0.246036
     23 H1          -14.277    -12.539    -28.082 bg            1 LIG        0.148090
     24 H2          -15.360    -11.652    -26.081 bh            1 LIG        0.146683
     25 H3          -16.401    -13.183    -24.421 bj            1 LIG        0.166841
     26 H4          -16.504    -17.868    -24.128 bk            1 LIG        0.321032
     27 H5          -14.272    -19.052    -27.919 bl            1 LIG        0.153393
     28 H6          -13.935    -21.433    -28.165 bm            1 LIG        0.157032
     29 H7          -15.864    -22.109    -24.379 bn            1 LIG        0.157032
     30 H8          -16.208    -19.729    -24.120 bo            1 LIG        0.153393
     31 H9          -14.047    -24.829    -27.707 bp            1 LIG        0.461988
     32 H10         -16.636    -24.002    -26.747 bq            1 LIG        0.081695
     33 H11         -16.076    -24.291    -25.083 bs            1 LIG        0.081695
     34 H12         -15.640    -25.387    -26.385 bt            1 LIG        0.081695
     35 H13         -12.508    -23.249    -25.806 bu            1 LIG        0.081695
     36 H14         -13.174    -24.858    -25.563 bv            1 LIG        0.081695
     37 H15         -13.610    -23.564    -24.470 bw            1 LIG        0.081695
     38 H16         -13.737    -14.327    -29.552 bx            1 LIG        0.088720
     39 H17         -14.547    -15.874    -29.343 by            1 LIG        0.088720
     40 H18         -12.989    -15.591    -28.576 bz            1 LIG        0.088720
@<TRIPOS>BOND
        1  1  2  2
        2  1  3  1
        3  1  22  1
        4  2  4  1
        5  2  5  1
        6  3  6  2
        7  3  23  1
        8  4  7  2
        9  4  8  1
        10  5  11  2
        11  6  7  1
        12  6  24  1
        13  7  25  1
        14  8  9  1
        15  8  10  2
        16  9  11  1
        17  9  26  1
        18  11  12  1
        19  12  13  2
        20  12  17  1
        21  13  14  1
        22  13  27  1
        23  14  15  2
        24  14  28  1
        25  15  16  1
        26  15  18  1
        27  16  17  2
        28  16  29  1
        29  17  30  1
        30  18  19  1
        31  18  20  1
        32  18  21  1
        33  19  31  1
        34  20  32  1
        35  20  33  1
        36  20  34  1
        37  21  35  1
        38  21  36  1
        39  21  37  1
        40  22  38  1
        41  22  39  1
        42  22  40  1
@<TRIPOS>SUBSTRUCTURE
       1 LIG             1 RESIDUE    0 **** ROOT      0
