@<TRIPOS>MOLECULE
LIG
42 45
SMALL
USER_CHARGES
@<TRIPOS>ATOM
      1 C1           14.889     -3.799      4.193 aa            1 LIG        0.223247
      2 C2           15.081     -5.325      4.240 ab            1 LIG       -0.057956
      3 C3           15.224     -5.907      2.827 ad            1 LIG       -0.048048
      4 C4           14.104     -5.412      1.880 ae            1 LIG        0.051444
      5 C5           12.709     -6.067      2.115 af            1 LIG        0.130048
      6 C6           12.757     -7.592      2.034 ah            1 LIG        0.078103
      7 C7           12.319     -8.376      3.104 ai            1 LIG       -0.192632
      8 C8           12.398     -9.767      3.020 aj            1 LIG       -0.136854
      9 C9           12.905    -10.368      1.869 ak            1 LIG       -0.138332
     10 C10          13.326     -9.593      0.797 an            1 LIG       -0.136854
     11 C11          13.250     -8.209      0.880 ao            1 LIG       -0.192632
     12 N1           11.740     -5.525      1.164 ap            1 LIG       -0.565694
     13 C12          11.792     -4.180      0.752 aq            1 LIG        0.223723
     14 C13          10.775     -3.701     -0.061 av            1 LIG       -0.220654
     15 C14          10.803     -2.401     -0.543 aw            1 LIG       -0.199089
     16 C15          11.859     -1.551     -0.194 ax            1 LIG        0.129341
     17 C16          11.908     -0.147     -0.757 ay            1 LIG       -0.237384
     18 C17          12.853     -2.018      0.665 az            1 LIG       -0.249625
     19 C18          12.864     -3.333      1.127 bb            1 LIG       -0.029827
     20 C19          14.010     -3.868      1.979 bc            1 LIG        0.272510
     21 O1           13.806     -3.453      3.328 bd            1 LIG       -0.489275
     22 H1           15.810     -3.329      3.833 bf            1 LIG        0.013548
     23 H2           14.231     -5.785      4.747 bg            1 LIG        0.020041
     24 H3           15.961     -5.579      4.833 bh            1 LIG        0.020041
     25 H4           15.250     -6.996      2.881 bj            1 LIG        0.019898
     26 H5           16.189     -5.611      2.411 bk            1 LIG        0.019898
     27 H6           14.417     -5.633      0.860 bl            1 LIG       -0.005635
     28 H7           12.363     -5.813      3.122 bm            1 LIG        0.035989
     29 H8           11.927     -7.918      3.999 bn            1 LIG        0.141438
     30 H9           12.065    -10.375      3.848 bo            1 LIG        0.140010
     31 H10          12.948    -11.445      1.802 bp            1 LIG        0.139075
     32 H11          13.694    -10.061     -0.106 bq            1 LIG        0.140010
     33 H12          13.564     -7.607      0.038 bs            1 LIG        0.141438
     34 H13          10.960     -6.127      0.949 bt            1 LIG        0.319054
     35 H14           9.949     -4.350     -0.338 bu            1 LIG        0.130318
     36 H15          10.019     -2.050     -1.198 bv            1 LIG        0.136055
     37 H16          12.395      0.539     -0.060 bw            1 LIG        0.073783
     38 H17          13.680     -1.361      0.930 bx            1 LIG        0.141066
     39 H18          14.941     -3.434      1.602 by            1 LIG       -0.000699
     40 H19          10.901      0.242     -0.919 bz            1 LIG        0.073783
     41 H20          12.452     -0.138     -1.703 cb            1 LIG        0.073783
     42 H21          14.714     -3.394      5.191 ci            1 LIG        0.013548
@<TRIPOS>BOND
        1  1  2  1
        2  1  21  1
        3  1  22  1
        4  1  42  1
        5  2  3  1
        6  2  23  1
        7  2  24  1
        8  3  4  1
        9  3  25  1
        10  3  26  1
        11  4  5  1
        12  4  20  1
        13  4  27  1
        14  5  6  1
        15  5  12  1
        16  5  28  1
        17  6  7  2
        18  6  11  1
        19  7  8  1
        20  7  29  1
        21  8  9  2
        22  8  30  1
        23  9  10  1
        24  9  31  1
        25  10  11  2
        26  10  32  1
        27  11  33  1
        28  12  13  1
        29  12  34  1
        30  13  14  2
        31  13  19  1
        32  14  15  1
        33  14  35  1
        34  15  16  2
        35  15  36  1
        36  16  17  1
        37  16  18  1
        38  17  37  1
        39  17  40  1
        40  17  41  1
        41  18  19  2
        42  18  38  1
        43  19  20  1
        44  20  21  1
        45  20  39  1
@<TRIPOS>SUBSTRUCTURE
       1 LIG             1 RESIDUE    0 **** ROOT      0
