@<TRIPOS>MOLECULE
LIG
65 68
SMALL
USER_CHARGES
@<TRIPOS>ATOM
      1 C1           13.922     -5.225      6.214 aa            1 LIG       -0.087230
      2 N1           14.393     -3.936      6.711 ab            1 LIG       -0.488561
      3 C2           14.729     -3.077      5.549 ad            1 LIG        0.082939
      4 C3           14.909     -3.790      4.194 ae            1 LIG        0.254505
      5 C4           15.080     -5.326      4.252 af            1 LIG       -0.065658
      6 C5           15.218     -5.910      2.836 ah            1 LIG       -0.051366
      7 C6           14.104     -5.415      1.883 ai            1 LIG        0.044929
      8 C7           12.711     -6.069      2.121 aj            1 LIG        0.123062
      9 C8           12.759     -7.593      2.037 ak            1 LIG        0.068273
     10 C9           13.253     -8.207      0.881 an            1 LIG       -0.194621
     11 C10          13.330     -9.593      0.798 ao            1 LIG       -0.134008
     12 C11          12.908    -10.367      1.873 ap            1 LIG       -0.134103
     13 C12          12.403     -9.765      3.023 aq            1 LIG       -0.134008
     14 C13          12.326     -8.376      3.108 av            1 LIG       -0.194621
     15 N2           11.737     -5.523      1.176 aw            1 LIG       -0.568803
     16 C14          11.794     -4.183      0.761 ax            1 LIG        0.238209
     17 C15          10.774     -3.710     -0.057 ay            1 LIG       -0.214031
     18 C16          10.809     -2.405     -0.540 az            1 LIG       -0.179573
     19 C17          11.858     -1.554     -0.186 bb            1 LIG       -0.079751
     20 C18          11.904     -0.135     -0.746 bc            1 LIG        0.691899
     21 F1           12.554      0.694      0.071 bd            1 LIG       -0.225546
     22 F2           10.670      0.335     -0.931 bf            1 LIG       -0.225546
     23 F3           12.532     -0.155     -1.921 bg            1 LIG       -0.225546
     24 C19          12.859     -2.022      0.669 bh            1 LIG       -0.238752
     25 C20          12.866     -3.344      1.131 bj            1 LIG       -0.025742
     26 C21          14.016     -3.872      1.978 bk            1 LIG        0.263419
     27 O1           13.809     -3.470      3.334 bl            1 LIG       -0.483683
     28 S1           15.687     -4.188      7.851 bm            1 LIG        1.046006
     29 O2           15.960     -2.899      8.496 bn            1 LIG       -0.537318
     30 O3           16.769     -4.905      7.172 bo            1 LIG       -0.537318
     31 C22          14.857     -5.374      9.099 bp            1 LIG       -0.124927
     32 C23          15.917     -5.992     10.005 bq            1 LIG       -0.064962
     33 C24          15.304     -6.916     11.015 bs            1 LIG        0.216460
     34 N3           16.353     -7.482     11.857 bt            1 LIG       -0.621350
     35 H1           13.113     -5.065      5.501 bu            1 LIG        0.108717
     36 H2           13.558     -5.825      7.048 bv            1 LIG        0.108717
     37 H3           14.742     -5.747      5.721 bw            1 LIG        0.108717
     38 H4           13.964     -2.305      5.459 bx            1 LIG        0.057305
     39 H5           15.646     -2.533      5.783 by            1 LIG        0.057305
     40 H6           15.806     -3.364      3.740 bz            1 LIG        0.028577
     41 H7           15.957     -5.592      4.841 cb            1 LIG        0.015477
     42 H8           14.219     -5.784      4.737 ci            1 LIG        0.015477
     43 H9           16.182     -5.602      2.429 cj            1 LIG        0.027150
     44 H10          15.250     -6.999      2.875 ck            1 LIG        0.027150
     45 H11          14.414     -5.658      0.866 cm            1 LIG        0.010188
     46 H12          12.370     -5.794      3.121 cn            1 LIG        0.044450
     47 H13          13.573     -7.606      0.043 ct            1 LIG        0.136415
     48 H14          13.713    -10.063     -0.096 cw            1 LIG        0.148718
     49 H15          12.966    -11.445      1.812 da            1 LIG        0.150417
     50 H16          12.073    -10.377      3.850 db            1 LIG        0.148718
     51 H17          11.937     -7.912      4.002 dc            1 LIG        0.136415
     52 H18          10.963     -6.117      0.916 dd            1 LIG        0.330786
     53 H19           9.957     -4.355     -0.344 de            1 LIG        0.154088
     54 H20          10.026     -2.053     -1.195 df            1 LIG        0.167904
     55 H21          13.671     -1.364      0.943 dg            1 LIG        0.169086
     56 H22          14.940     -3.428      1.603 dh            1 LIG        0.033619
     57 H23          14.129     -4.796      9.666 di            1 LIG        0.075393
     58 H24          14.335     -6.149      8.544 dj            1 LIG        0.075393
     59 H25          16.644     -6.561      9.424 dk            1 LIG        0.086967
     60 H26          16.463     -5.217     10.544 dl            1 LIG        0.086967
     61 H27          14.600     -6.361     11.635 dm            1 LIG        0.067305
     62 H28          14.778     -7.720     10.500 dn            1 LIG        0.067305
     63 H29          15.941     -8.104     12.537 do            1 LIG        0.387534
     64 H30          16.841     -6.737     12.335 dp            1 LIG        0.387534
     65 H31          17.005     -7.997     11.283 dq            1 LIG        0.387534
@<TRIPOS>BOND
        1  1  2  1
        2  1  35  1
        3  1  36  1
        4  1  37  1
        5  2  3  1
        6  2  28  1
        7  3  4  1
        8  3  38  1
        9  3  39  1
        10  4  5  1
        11  4  27  1
        12  4  40  1
        13  5  6  1
        14  5  41  1
        15  5  42  1
        16  6  7  1
        17  6  43  1
        18  6  44  1
        19  7  8  1
        20  7  26  1
        21  7  45  1
        22  8  9  1
        23  8  15  1
        24  8  46  1
        25  9  10  2
        26  9  14  1
        27  10  11  1
        28  10  47  1
        29  11  12  2
        30  11  48  1
        31  12  13  1
        32  12  49  1
        33  13  14  2
        34  13  50  1
        35  14  51  1
        36  15  16  1
        37  15  52  1
        38  16  17  2
        39  16  25  1
        40  17  18  1
        41  17  53  1
        42  18  19  2
        43  18  54  1
        44  19  20  1
        45  19  24  1
        46  20  21  1
        47  20  22  1
        48  20  23  1
        49  24  25  2
        50  24  55  1
        51  25  26  1
        52  26  27  1
        53  26  56  1
        54  28  29  2
        55  28  30  2
        56  28  31  1
        57  31  32  1
        58  31  57  1
        59  31  58  1
        60  32  33  1
        61  32  59  1
        62  32  60  1
        63  33  34  1
        64  33  61  1
        65  33  62  1
        66  34  63  1
        67  34  64  1
        68  34  65  1
@<TRIPOS>SUBSTRUCTURE
       1 LIG             1 RESIDUE    0 **** ROOT      0
