@<TRIPOS>MOLECULE
LIG
49 53
SMALL
USER_CHARGES
@<TRIPOS>ATOM
      1 N1           94.802     46.511    266.781 aa            1 LIG       -0.487206
      2 N2           95.559     48.956    267.942 ab            1 LIG       -0.481241
      3 C1           96.450     47.950    267.756 ad            1 LIG        0.166064
      4 C2           96.068     46.734    267.205 ae            1 LIG        0.172260
      5 C3           94.268     48.761    267.516 af            1 LIG        0.246179
      6 C4           93.896     47.522    266.919 ah            1 LIG        0.295524
      7 C5           92.569     47.324    266.479 ai            1 LIG       -0.306990
      8 C6           91.613     48.319    266.671 aj            1 LIG        0.282904
      9 C7           91.966     49.515    267.275 ak            1 LIG       -0.241894
     10 C8           93.285     49.779    267.684 an            1 LIG        0.001842
     11 C9           93.588     51.078    268.312 ao            1 LIG        0.069463
     12 N3           90.274     48.114    266.310 ap            1 LIG       -0.561795
     13 C10          94.575     51.922    267.782 aq            1 LIG       -0.175087
     14 C11          94.865     53.151    268.382 av            1 LIG       -0.210407
     15 C12          92.898     51.469    269.463 aw            1 LIG       -0.247076
     16 C13          89.716     47.345    265.285 ax            1 LIG        0.149906
     17 C14          90.414     47.129    264.089 ay            1 LIG        0.177049
     18 N4           89.911     46.442    263.037 az            1 LIG       -0.466210
     19 C15          88.657     45.935    263.162 bb            1 LIG        0.239057
     20 C16          87.888     46.087    264.314 bc            1 LIG       -0.272733
     21 C17          88.422     46.800    265.393 bd            1 LIG       -0.025488
     22 S1           87.480     46.899    266.918 bf            1 LIG        0.920345
     23 O1           86.129     46.400    266.661 bg            1 LIG       -0.548643
     24 O2           87.673     48.243    267.479 bh            1 LIG       -0.548643
     25 C18          88.371     45.662    268.018 bj            1 LIG       -0.370785
     26 C19          93.181     52.678    270.064 bk            1 LIG        0.192162
     27 C20          94.158     53.525    269.516 bl            1 LIG        0.193780
     28 O3           94.433     54.767    270.048 bm            1 LIG       -0.385785
     29 C21          94.013     54.912    271.400 bn            1 LIG        0.192717
     30 C22          92.593     54.355    271.589 bo            1 LIG        0.193525
     31 O4           92.525     52.976    271.242 bp            1 LIG       -0.391811
     32 H1           97.470     48.144    268.055 bq            1 LIG        0.059164
     33 H2           96.779     45.937    267.048 bs            1 LIG        0.060816
     34 H3           92.287     46.375    266.045 bt            1 LIG        0.168105
     35 H4           91.214     50.276    267.425 bu            1 LIG        0.161546
     36 H5           89.584     48.600    266.879 bv            1 LIG        0.379456
     37 H6           95.118     51.638    266.895 bw            1 LIG        0.173708
     38 H7           95.608     53.810    267.962 bx            1 LIG        0.166716
     39 H8           92.153     50.819    269.910 by            1 LIG        0.162426
     40 H9           91.408     47.529    263.960 bz            1 LIG        0.090289
     41 H10          88.272     45.379    262.320 cb            1 LIG        0.077771
     42 H11          86.905     45.637    264.373 ci            1 LIG        0.171282
     43 H12          88.356     44.689    267.531 cj            1 LIG        0.147720
     44 H13          87.853     45.606    268.976 ck            1 LIG        0.147720
     45 H14          89.398     45.997    268.162 cm            1 LIG        0.147720
     46 H15          94.692     54.376    272.065 cn            1 LIG        0.029085
     47 H16          94.049     55.965    271.674 ct            1 LIG        0.029085
     48 H17          91.990     54.920    270.885 cw            1 LIG        0.028203
     49 H18          92.193     54.541    272.585 da            1 LIG        0.028203
@<TRIPOS>BOND
        1  1  4  2
        2  1  6  1
        3  2  3  2
        4  2  5  1
        5  3  4  1
        6  3  32  1
        7  4  33  1
        8  5  6  2
        9  5  10  1
        10  6  7  1
        11  7  8  2
        12  7  34  1
        13  8  9  1
        14  8  12  1
        15  9  10  2
        16  9  35  1
        17  10  11  1
        18  11  13  2
        19  11  15  1
        20  12  16  1
        21  12  36  1
        22  13  14  1
        23  13  37  1
        24  14  27  2
        25  14  38  1
        26  15  26  2
        27  15  39  1
        28  16  17  2
        29  16  21  1
        30  17  18  1
        31  17  40  1
        32  18  19  2
        33  19  20  1
        34  19  41  1
        35  20  21  2
        36  20  42  1
        37  21  22  1
        38  22  23  2
        39  22  24  2
        40  22  25  1
        41  25  43  1
        42  25  44  1
        43  25  45  1
        44  26  27  1
        45  26  31  1
        46  27  28  1
        47  28  29  1
        48  29  30  1
        49  29  46  1
        50  29  47  1
        51  30  31  1
        52  30  48  1
        53  30  49  1
@<TRIPOS>SUBSTRUCTURE
       1 LIG             1 RESIDUE    0 **** ROOT      0
