@<TRIPOS>MOLECULE
LIG
47 49
SMALL
USER_CHARGES
@<TRIPOS>ATOM
      1 C1          -15.345    -19.137    -26.028 aa            1 LIG        0.098440
      2 C2          -15.829    -20.004    -25.040 ab            1 LIG       -0.186350
      3 C3          -14.649    -19.678    -27.116 ad            1 LIG       -0.186350
      4 C4          -15.611    -21.373    -25.144 ae            1 LIG       -0.187665
      5 C5          -14.453    -21.050    -27.225 af            1 LIG       -0.187665
      6 N1          -15.080    -16.840    -26.796 ah            1 LIG       -0.493952
      7 C6          -14.941    -21.920    -26.249 ai            1 LIG        0.059306
      8 C7          -14.717    -23.447    -26.357 aj            1 LIG        0.455161
      9 C8          -15.212    -15.445    -26.664 ak            1 LIG        0.171760
     10 C9          -15.886    -14.903    -25.560 an            1 LIG       -0.056082
     11 C10         -15.477    -12.676    -26.396 ao            1 LIG        0.215714
     12 C11         -14.806    -13.211    -27.490 ap            1 LIG       -0.264564
     13 C12         -16.020    -13.517    -25.421 aq            1 LIG       -0.253661
     14 C13         -14.672    -14.590    -27.640 av            1 LIG        0.095789
     15 C14         -16.460    -15.852    -24.529 aw            1 LIG        0.631350
     16 N2          -16.218    -17.153    -24.837 ax            1 LIG       -0.410032
     17 C15         -15.532    -17.672    -25.918 ay            1 LIG        0.331157
     18 O1          -17.097    -15.542    -23.523 az            1 LIG       -0.630472
     19 C16         -16.089    -24.146    -26.373 bb            1 LIG       -0.307631
     20 O2          -13.975    -23.749    -27.559 bc            1 LIG       -0.486182
     21 C17         -13.835    -23.874    -25.180 bd            1 LIG       -0.307631
     22 C18         -13.939    -15.123    -28.857 bf            1 LIG       -0.249047
     23 F1          -15.611    -11.334    -26.314 bg            1 LIG       -0.170993
     24 C19         -12.579    -23.423    -27.693 bh            1 LIG        0.197690
     25 C20         -11.599    -24.091    -26.705 bj            1 LIG        0.221448
     26 O3          -10.266    -23.709    -26.938 bk            1 LIG       -0.713466
     27 H1          -16.359    -19.640    -24.171 bl            1 LIG        0.155331
     28 H2          -14.260    -19.038    -27.895 bm            1 LIG        0.155331
     29 H3          -15.977    -21.997    -24.344 bn            1 LIG        0.161841
     30 H4          -13.908    -21.430    -28.075 bo            1 LIG        0.161841
     31 H5          -14.390    -12.539    -28.227 bp            1 LIG        0.170546
     32 H6          -16.540    -13.095    -24.573 bq            1 LIG        0.188560
     33 H7          -16.656    -17.808    -24.206 bs            1 LIG        0.325281
     34 H8          -16.643    -24.019    -25.448 bt            1 LIG        0.082193
     35 H9          -16.095    -25.208    -26.588 bu            1 LIG        0.082193
     36 H10         -16.615    -23.685    -27.191 bv            1 LIG        0.082193
     37 H11         -14.349    -23.784    -24.223 bw            1 LIG        0.082193
     38 H12         -12.979    -23.208    -25.148 bx            1 LIG        0.082193
     39 H13         -13.445    -24.884    -25.265 by            1 LIG        0.082193
     40 H14         -13.795    -14.363    -29.626 bz            1 LIG        0.095235
     41 H15         -14.520    -15.934    -29.290 cb            1 LIG        0.095235
     42 H16         -12.965    -15.517    -28.573 ci            1 LIG        0.095235
     43 H17         -12.468    -22.346    -27.595 cj            1 LIG        0.020568
     44 H18         -12.270    -23.643    -28.715 ck            1 LIG        0.020568
     45 H19         -11.656    -25.173    -26.815 cm            1 LIG        0.004797
     46 H20         -11.840    -23.877    -25.670 cn            1 LIG        0.004797
     47 H21         -10.187    -22.760    -26.804 ct            1 LIG        0.465604
@<TRIPOS>BOND
        1  1  2  2
        2  1  3  1
        3  1  17  1
        4  2  4  1
        5  2  27  1
        6  3  5  2
        7  3  28  1
        8  4  7  2
        9  4  29  1
        10  5  7  1
        11  5  30  1
        12  6  9  1
        13  6  17  2
        14  7  8  1
        15  8  19  1
        16  8  20  1
        17  8  21  1
        18  9  10  2
        19  9  14  1
        20  10  13  1
        21  10  15  1
        22  11  12  1
        23  11  13  2
        24  11  23  1
        25  12  14  2
        26  12  31  1
        27  13  32  1
        28  14  22  1
        29  15  16  1
        30  15  18  2
        31  16  17  1
        32  16  33  1
        33  19  34  1
        34  19  35  1
        35  19  36  1
        36  20  24  1
        37  21  37  1
        38  21  38  1
        39  21  39  1
        40  22  40  1
        41  22  41  1
        42  22  42  1
        43  24  25  1
        44  24  43  1
        45  24  44  1
        46  25  26  1
        47  25  45  1
        48  25  46  1
        49  26  47  1
@<TRIPOS>SUBSTRUCTURE
       1 LIG             1 RESIDUE    0 **** ROOT      0
