@<TRIPOS>MOLECULE
LIG
44 48
SMALL
USER_CHARGES
@<TRIPOS>ATOM
      1 C1           92.564     47.341    266.481 aa            1 LIG       -0.301734
      2 C2           91.608     48.334    266.674 ab            1 LIG        0.283698
      3 C3           91.969     49.532    267.285 ad            1 LIG       -0.241703
      4 C4           93.283     49.795    267.688 ae            1 LIG       -0.002050
      5 C5           93.892     47.538    266.910 af            1 LIG        0.297239
      6 C6           94.272     48.779    267.512 ah            1 LIG        0.247399
      7 N1           95.560     48.965    267.935 ai            1 LIG       -0.482362
      8 C7           96.448     47.957    267.746 aj            1 LIG        0.167488
      9 C8           96.060     46.747    267.185 ak            1 LIG        0.173013
     10 N2           94.795     46.530    266.760 an            1 LIG       -0.483899
     11 C9           93.595     51.098    268.332 ao            1 LIG        0.080191
     12 N3           90.272     48.124    266.315 ap            1 LIG       -0.561909
     13 C10          94.575     51.945    267.793 aq            1 LIG       -0.165432
     14 C11          94.877     53.182    268.362 av            1 LIG       -0.197483
     15 C12          92.900     51.474    269.488 aw            1 LIG       -0.234523
     16 C13          93.200     52.699    270.079 ax            1 LIG        0.224027
     17 C14          94.153     53.548    269.501 ay            1 LIG        0.224701
     18 N4           94.330     54.727    270.139 az            1 LIG       -0.388473
     19 S1           93.322     54.635    271.462 bb            1 LIG        0.380558
     20 N5           92.619     53.145    271.215 bc            1 LIG       -0.390434
     21 C15          89.715     47.344    265.288 bd            1 LIG        0.149938
     22 C16          88.422     46.801    265.397 bf            1 LIG       -0.025018
     23 C17          87.887     46.093    264.314 bg            1 LIG       -0.271978
     24 C18          88.657     45.941    263.163 bh            1 LIG        0.239926
     25 N6           89.911     46.441    263.040 bj            1 LIG       -0.467004
     26 C19          90.417     47.126    264.096 bk            1 LIG        0.177364
     27 S2           87.480     46.889    266.923 bl            1 LIG        0.921290
     28 C20          88.381     45.652    268.023 bm            1 LIG       -0.370774
     29 O1           86.135     46.374    266.666 bn            1 LIG       -0.547310
     30 O2           87.660     48.235    267.482 bo            1 LIG       -0.547310
     31 H1           92.283     46.394    266.045 bp            1 LIG        0.170672
     32 H2           91.209     50.284    267.443 bq            1 LIG        0.162144
     33 H3           97.469     48.145    268.045 bs            1 LIG        0.060940
     34 H4           96.770     45.947    267.023 bt            1 LIG        0.062931
     35 H5           89.580     48.609    266.877 bu            1 LIG        0.381930
     36 H6           95.105     51.647    266.900 bv            1 LIG        0.174043
     37 H7           95.628     53.831    267.927 bw            1 LIG        0.161235
     38 H8           92.153     50.828    269.922 bx            1 LIG        0.156441
     39 H9           86.900     45.652    264.369 by            1 LIG        0.172578
     40 H10          88.272     45.390    262.319 bz            1 LIG        0.079132
     41 H11          91.408     47.528    263.963 cb            1 LIG        0.085481
     42 H12          87.867     45.573    268.978 ci            1 LIG        0.148346
     43 H13          89.408     45.992    268.161 cj            1 LIG        0.148346
     44 H14          88.360     44.676    267.545 ck            1 LIG        0.148346
@<TRIPOS>BOND
        1  1  2  2
        2  1  5  1
        3  1  31  1
        4  2  3  1
        5  2  12  1
        6  3  4  2
        7  3  32  1
        8  4  6  1
        9  4  11  1
        10  5  6  2
        11  5  10  1
        12  6  7  1
        13  7  8  2
        14  8  9  1
        15  8  33  1
        16  9  10  2
        17  9  34  1
        18  11  13  1
        19  11  15  2
        20  12  21  1
        21  12  35  1
        22  13  14  2
        23  13  36  1
        24  14  17  1
        25  14  37  1
        26  15  16  1
        27  15  38  1
        28  16  17  1
        29  16  20  2
        30  17  18  2
        31  18  19  1
        32  19  20  1
        33  21  22  2
        34  21  26  1
        35  22  23  1
        36  22  27  1
        37  23  24  2
        38  23  39  1
        39  24  25  1
        40  24  40  1
        41  25  26  2
        42  26  41  1
        43  27  28  1
        44  27  29  2
        45  27  30  2
        46  28  42  1
        47  28  43  1
        48  28  44  1
@<TRIPOS>SUBSTRUCTURE
       1 LIG             1 RESIDUE    0 **** ROOT      0
