@<TRIPOS>MOLECULE
LIG
38 40
SMALL
USER_CHARGES
@<TRIPOS>ATOM
      1 O1           27.894      1.179    -11.063 aa            1 LIG       -0.696074
      2 C1           27.161      0.164    -11.703 ab            1 LIG        0.209649
      3 C2           26.496      0.627    -13.011 ad            1 LIG        0.115731
      4 C3           25.072      0.105    -12.997 ae            1 LIG       -0.010817
      5 C4           24.810     -0.187    -11.538 af            1 LIG       -0.038881
      6 C5           26.009     -0.273    -10.825 ah            1 LIG       -0.043707
      7 C6           26.006     -0.697     -9.487 ai            1 LIG       -0.005904
      8 C7           24.786     -0.946     -8.860 aj            1 LIG       -0.182670
      9 C8           23.592     -0.853     -9.567 ak            1 LIG       -0.207899
     10 C9           23.603     -0.502    -10.922 an            1 LIG        0.214513
     11 O2           22.493     -0.433    -11.729 ao            1 LIG       -0.311254
     12 C10          21.245     -0.664    -11.221 ap            1 LIG        0.275005
     13 C11          20.624     -1.887    -11.463 aq            1 LIG       -0.268363
     14 C12          19.358     -2.131    -10.943 av            1 LIG        0.228381
     15 F1           18.740     -3.304    -11.176 aw            1 LIG       -0.154969
     16 C13          18.716     -1.157    -10.187 ax            1 LIG       -0.254895
     17 C14          19.316      0.087     -9.979 ay            1 LIG        0.189871
     18 C15          18.635      1.138     -9.246 az            1 LIG        0.220630
     19 C16          20.595      0.321    -10.476 bb            1 LIG       -0.259615
     20 S1           27.515     -0.939     -8.542 bc            1 LIG        0.910609
     21 O3           27.219     -1.884     -7.463 bd            1 LIG       -0.545071
     22 O4           28.610     -1.240     -9.464 bf            1 LIG       -0.545071
     23 C17          27.836      0.747     -7.790 bg            1 LIG       -0.363333
     24 F2           26.389      1.956    -13.024 bh            1 LIG       -0.213537
     25 N1           18.097      1.975     -8.664 bj            1 LIG       -0.367797
     26 H1           28.502      1.605    -11.688 bk            1 LIG        0.501591
     27 H2           27.803     -0.692    -11.907 bl            1 LIG        0.057233
     28 H3           27.054      0.369    -13.911 bm            1 LIG        0.053528
     29 H4           25.017     -0.825    -13.562 bn            1 LIG        0.059825
     30 H5           24.353      0.794    -13.444 bo            1 LIG        0.059825
     31 H6           24.756     -1.239     -7.823 bp            1 LIG        0.194353
     32 H7           22.671     -1.100     -9.064 bq            1 LIG        0.171039
     33 H8           21.129     -2.649    -12.035 bs            1 LIG        0.192706
     34 H9           17.766     -1.406     -9.762 bt            1 LIG        0.182774
     35 H10          21.086      1.256    -10.264 bu            1 LIG        0.166244
     36 H11          28.870      0.761     -7.465 bv            1 LIG        0.155449
     37 H12          27.154      0.894     -6.959 bw            1 LIG        0.155449
     38 H13          27.682      1.516     -8.543 bx            1 LIG        0.155449
@<TRIPOS>BOND
        1  1  2  1
        2  1  26  1
        3  2  3  1
        4  2  6  1
        5  2  27  1
        6  3  4  1
        7  3  24  1
        8  3  28  1
        9  4  5  1
        10  4  29  1
        11  4  30  1
        12  5  6  2
        13  5  10  1
        14  6  7  1
        15  7  8  2
        16  7  20  1
        17  8  9  1
        18  8  31  1
        19  9  10  2
        20  9  32  1
        21  10  11  1
        22  11  12  1
        23  12  13  2
        24  12  19  1
        25  13  14  1
        26  13  33  1
        27  14  15  1
        28  14  16  2
        29  16  17  1
        30  16  34  1
        31  17  18  1
        32  17  19  2
        33  18  25  3
        34  19  35  1
        35  20  21  2
        36  20  22  2
        37  20  23  1
        38  23  36  1
        39  23  37  1
        40  23  38  1
@<TRIPOS>SUBSTRUCTURE
       1 LIG             1 RESIDUE    0 **** ROOT      0
