@<TRIPOS>MOLECULE
LIG
65 70
SMALL
USER_CHARGES
@<TRIPOS>ATOM
      1 C1           -4.255     -3.103     13.571 aa            1 LIG        0.065056
      2 O1           -3.874     -2.353     14.717 ab            1 LIG       -0.352299
      3 C2           -2.526     -2.106     14.805 ad            1 LIG        0.191743
      4 C3           -1.750     -2.867     15.680 ae            1 LIG       -0.222100
      5 C4           -0.386     -2.611     15.815 af            1 LIG       -0.223440
      6 C5            0.222     -1.583     15.089 ah            1 LIG        0.272108
      7 N1            1.593     -1.349     15.306 ai            1 LIG       -0.565906
      8 C6            2.545     -0.469     14.754 aj            1 LIG        0.446674
      9 N2            2.218      0.355     13.719 ak            1 LIG       -0.556312
     10 C7            3.123      1.241     13.218 an            1 LIG        0.209273
     11 C8            4.421      1.304     13.717 ao            1 LIG       -0.118403
     12 N3            4.748      0.492     14.765 ap            1 LIG        0.063462
     13 C9            5.890      0.384     15.504 aq            1 LIG       -0.163432
     14 C10           5.572     -0.509     16.518 av            1 LIG        0.031494
     15 N4            4.382     -1.054     16.392 aw            1 LIG       -0.514132
     16 C11           3.833     -0.417     15.325 ax            1 LIG        0.172771
     17 C12           2.656      2.156     12.134 ay            1 LIG        0.113501
     18 C13           3.557      2.628     11.167 az            1 LIG       -0.181837
     19 C14           3.129      3.450     10.128 bb            1 LIG       -0.133973
     20 C15           1.788      3.808     10.032 bc            1 LIG       -0.175126
     21 C16           0.866      3.371     10.989 bd            1 LIG        0.013428
     22 C17           1.314      2.558     12.042 bf            1 LIG       -0.248935
     23 C18          -0.578      3.765     10.896 bg            1 LIG        0.700839
     24 O2           -1.278      3.659      9.893 bh            1 LIG       -0.607606
     25 N5           -1.034      4.255     12.049 bj            1 LIG       -0.497961
     26 C19          -2.394      4.729     12.290 bk            1 LIG        0.207570
     27 C20          -2.654      5.582     13.355 bl            1 LIG       -0.210007
     28 C21          -3.949      6.032     13.585 bm            1 LIG       -0.193185
     29 C22          -4.984      5.629     12.749 bn            1 LIG        0.103222
     30 C23          -4.723      4.776     11.683 bo            1 LIG       -0.193185
     31 C24          -3.429      4.325     11.454 bp            1 LIG       -0.210007
     32 C25          -6.381      6.115     12.997 bq            1 LIG        0.040228
     33 C26          -7.527      5.808     12.257 bs            1 LIG       -0.014593
     34 N6           -8.598      6.399     12.739 bt            1 LIG       -0.421578
     35 N7           -8.159      7.098     13.799 bu            1 LIG        0.007602
     36 C27          -6.811      6.961     14.003 bv            1 LIG       -0.182526
     37 C28          -0.566     -0.826     14.211 bw            1 LIG       -0.299154
     38 C29          -1.939     -1.076     14.058 bx            1 LIG        0.202177
     39 O3           -2.699     -0.305     13.202 by            1 LIG       -0.347122
     40 C30          -2.002      0.675     12.525 bz            1 LIG        0.061328
     41 H1           -3.753     -4.071     13.551 cb            1 LIG        0.055468
     42 H2           -4.018     -2.567     12.650 ci            1 LIG        0.055468
     43 H3           -5.331     -3.281     13.589 cj            1 LIG        0.055468
     44 H4           -2.210     -3.653     16.261 ck            1 LIG        0.155761
     45 H5            0.191     -3.210     16.503 cm            1 LIG        0.144878
     46 H6            2.025     -1.886     16.047 cn            1 LIG        0.365155
     47 H7            5.170      2.003     13.372 ct            1 LIG        0.120248
     48 H8            6.766      0.974     15.290 cw            1 LIG        0.149937
     49 H9            6.209     -0.833     17.330 da            1 LIG        0.150229
     50 H10           4.593      2.331     11.200 db            1 LIG        0.162766
     51 H11           3.834      3.794      9.384 dc            1 LIG        0.153417
     52 H12           1.456      4.435      9.217 dd            1 LIG        0.170147
     53 H13           0.605      2.213     12.781 de            1 LIG        0.136748
     54 H14          -0.495      4.359     12.896 df            1 LIG        0.298335
     55 H15          -1.849      5.896     14.006 dg            1 LIG        0.159659
     56 H16          -4.152      6.697     14.415 dh            1 LIG        0.142741
     57 H17          -5.529      4.462     11.033 di            1 LIG        0.142741
     58 H18          -3.226      3.661     10.624 dj            1 LIG        0.159659
     59 H19          -7.566      5.164     11.385 dk            1 LIG        0.149057
     60 H20          -8.775      7.666     14.381 dl            1 LIG        0.283886
     61 H21          -6.306      7.463     14.819 dm            1 LIG        0.150913
     62 H22          -0.155     -0.017     13.634 dn            1 LIG        0.194204
     63 H23          -2.685      1.226     11.879 do            1 LIG        0.057820
     64 H24          -1.222      0.213     11.920 dp            1 LIG        0.057820
     65 H25          -1.548      1.359     13.242 dq            1 LIG        0.057820
@<TRIPOS>BOND
        1  1  2  1
        2  1  41  1
        3  1  42  1
        4  1  43  1
        5  2  3  1
        6  3  4  2
        7  3  38  1
        8  4  5  1
        9  4  44  1
        10  5  6  2
        11  5  45  1
        12  6  7  1
        13  6  37  1
        14  7  8  1
        15  7  46  1
        16  8  9  2
        17  8  16  1
        18  9  10  1
        19  10  11  2
        20  10  17  1
        21  11  12  1
        22  11  47  1
        23  12  13  1
        24  12  16  1
        25  13  14  2
        26  13  48  1
        27  14  15  1
        28  14  49  1
        29  15  16  2
        30  17  18  2
        31  17  22  1
        32  18  19  1
        33  18  50  1
        34  19  20  2
        35  19  51  1
        36  20  21  1
        37  20  52  1
        38  21  22  2
        39  21  23  1
        40  22  53  1
        41  23  24  2
        42  23  25  1
        43  25  26  1
        44  25  54  1
        45  26  27  2
        46  26  31  1
        47  27  28  1
        48  27  55  1
        49  28  29  2
        50  28  56  1
        51  29  30  1
        52  29  32  1
        53  30  31  2
        54  30  57  1
        55  31  58  1
        56  32  33  1
        57  32  36  2
        58  33  34  2
        59  33  59  1
        60  34  35  1
        61  35  36  1
        62  35  60  1
        63  36  61  1
        64  37  38  2
        65  37  62  1
        66  38  39  1
        67  39  40  1
        68  40  63  1
        69  40  64  1
        70  40  65  1
@<TRIPOS>SUBSTRUCTURE
       1 LIG             1 RESIDUE    0 **** ROOT      0
