@<TRIPOS>MOLECULE
LIG
57 59
SMALL
USER_CHARGES
@<TRIPOS>ATOM
      1 C1           24.498     32.643     47.400 aa            1 LIG       -0.258642
      2 N1           25.848     33.127     47.978 ab            1 LIG       -0.054276
      3 C2           26.728     33.752     46.876 ad            1 LIG       -0.258642
      4 C3           25.707     34.082     49.185 ae            1 LIG        0.064351
      5 C4           24.967     33.412     50.352 af            1 LIG       -0.086536
      6 C5           25.048     34.268     51.622 ah            1 LIG        0.212226
      7 O1           24.144     33.755     52.594 ai            1 LIG       -0.481800
      8 C6           24.400     33.865     53.909 aj            1 LIG        0.852285
      9 O2           25.444     34.324     54.377 ak            1 LIG       -0.615754
     10 N2           23.296     33.378     54.599 an            1 LIG       -0.498957
     11 C7           23.143     33.084     55.965 ao            1 LIG        0.208725
     12 C8           24.194     33.113     56.898 ap            1 LIG       -0.211973
     13 C9           23.970     32.705     58.213 aq            1 LIG       -0.132168
     14 C10          22.709     32.256     58.608 av            1 LIG       -0.199750
     15 C11          21.652     32.230     57.694 aw            1 LIG        0.093851
     16 C12          20.262     31.777     58.141 ax            1 LIG        0.029066
     17 N3           19.952     30.372     57.810 ay            1 LIG        0.038079
     18 N4           19.451     30.143     56.523 az            1 LIG       -0.398651
     19 C13          19.172     28.957     56.088 bb            1 LIG        0.212905
     20 C14          19.405     27.857     57.012 bc            1 LIG       -0.097762
     21 C15          19.890     28.069     58.256 bd            1 LIG       -0.192108
     22 C16          20.210     29.396     58.756 bf            1 LIG        0.559310
     23 O3           20.647     29.571     59.894 bg            1 LIG       -0.619719
     24 C17          18.641     28.704     54.725 bh            1 LIG        0.106632
     25 C18          17.946     27.525     54.412 bj            1 LIG       -0.188471
     26 C19          17.454     27.308     53.127 bk            1 LIG       -0.203972
     27 C20          17.659     28.266     52.138 bl            1 LIG        0.222152
     28 F1           17.182     28.056     50.890 bm            1 LIG       -0.167422
     29 C21          18.352     29.438     52.427 bn            1 LIG       -0.203972
     30 C22          18.841     29.656     53.712 bo            1 LIG       -0.188471
     31 C23          21.874     32.656     56.379 bp            1 LIG       -0.265934
     32 H1           23.987     32.068     48.173 bq            1 LIG        0.155492
     33 H2           24.717     32.010     46.537 bs            1 LIG        0.155492
     34 H3           23.927     33.526     47.110 bt            1 LIG        0.155492
     35 H4           27.688     34.017     47.324 bu            1 LIG        0.155492
     36 H5           26.212     34.633     46.490 bv            1 LIG        0.155492
     37 H6           26.865     32.998     46.099 bw            1 LIG        0.155492
     38 H7           26.732     34.326     49.469 bx            1 LIG        0.086084
     39 H8           25.203     34.980     48.823 by            1 LIG        0.086084
     40 H9           23.916     33.265     50.093 bz            1 LIG        0.078194
     41 H10          25.386     32.424     50.558 cb            1 LIG        0.078194
     42 H11          26.076     34.279     51.989 ci            1 LIG        0.034137
     43 H12          24.773     35.300     51.403 cj            1 LIG        0.034137
     44 H13          22.498     33.155     54.020 ck            1 LIG        0.319086
     45 H14          25.188     33.429     56.627 cm            1 LIG        0.186265
     46 H15          24.786     32.720     58.922 cn            1 LIG        0.159956
     47 H16          22.554     31.925     59.625 ct            1 LIG        0.187545
     48 H17          20.137     31.975     59.208 cw            1 LIG        0.083314
     49 H18          19.517     32.420     57.666 da            1 LIG        0.083314
     50 H19          19.219     26.834     56.726 db            1 LIG        0.120566
     51 H20          20.066     27.229     58.909 dc            1 LIG        0.142015
     52 H21          17.765     26.754     55.149 dd            1 LIG        0.164654
     53 H22          16.921     26.398     52.893 de            1 LIG        0.169161
     54 H23          18.510     30.172     51.650 df            1 LIG        0.169161
     55 H24          19.381     30.570     53.910 dg            1 LIG        0.164654
     56 H25          21.058     32.620     55.670 dh            1 LIG        0.143745
     57 H26          26.348     32.309     48.322 di            1 LIG        0.302177
@<TRIPOS>BOND
        1  1  2  1
        2  1  32  1
        3  1  33  1
        4  1  34  1
        5  2  3  1
        6  2  4  1
        7  2  57  1
        8  3  35  1
        9  3  36  1
        10  3  37  1
        11  4  5  1
        12  4  38  1
        13  4  39  1
        14  5  6  1
        15  5  40  1
        16  5  41  1
        17  6  7  1
        18  6  42  1
        19  6  43  1
        20  7  8  1
        21  8  9  2
        22  8  10  1
        23  10  11  1
        24  10  44  1
        25  11  12  2
        26  11  31  1
        27  12  13  1
        28  12  45  1
        29  13  14  2
        30  13  46  1
        31  14  15  1
        32  14  47  1
        33  15  16  1
        34  15  31  2
        35  16  17  1
        36  16  48  1
        37  16  49  1
        38  17  18  1
        39  17  22  1
        40  18  19  2
        41  19  20  1
        42  19  24  1
        43  20  21  2
        44  20  50  1
        45  21  22  1
        46  21  51  1
        47  22  23  2
        48  24  25  2
        49  24  30  1
        50  25  26  1
        51  25  52  1
        52  26  27  2
        53  26  53  1
        54  27  28  1
        55  27  29  1
        56  29  30  2
        57  29  54  1
        58  30  55  1
        59  31  56  1
@<TRIPOS>SUBSTRUCTURE
       1 LIG             1 RESIDUE    0 **** ROOT      0
