@<TRIPOS>MOLECULE
LIG
62 65
SMALL
USER_CHARGES
@<TRIPOS>ATOM
      1 C1           16.191     -7.741     11.847 aa            1 LIG       -0.413566
      2 N1           15.191     -6.912     11.017 ab            1 LIG        0.014397
      3 C2           14.319     -7.854     10.321 ad            1 LIG       -0.413566
      4 C3           15.917     -5.992     10.005 ae            1 LIG        0.240132
      5 C4           14.857     -5.374      9.099 af            1 LIG       -0.138293
      6 S1           15.687     -4.188      7.851 ah            1 LIG        1.059882
      7 O1           15.960     -2.899      8.496 ai            1 LIG       -0.533644
      8 O2           16.769     -4.905      7.172 aj            1 LIG       -0.533644
      9 N2           14.393     -3.936      6.711 ak            1 LIG       -0.679663
     10 C5           14.729     -3.077      5.549 an            1 LIG        0.086557
     11 C6           14.909     -3.790      4.194 ao            1 LIG        0.248843
     12 C7           15.080     -5.326      4.252 ap            1 LIG       -0.070618
     13 C8           15.218     -5.910      2.836 aq            1 LIG       -0.064096
     14 C9           14.104     -5.415      1.883 av            1 LIG        0.050573
     15 C10          12.711     -6.069      2.121 aw            1 LIG        0.124740
     16 C11          12.759     -7.593      2.037 ax            1 LIG        0.070147
     17 C12          12.326     -8.376      3.108 ay            1 LIG       -0.193396
     18 C13          12.403     -9.765      3.023 az            1 LIG       -0.132151
     19 C14          12.908    -10.367      1.873 bb            1 LIG       -0.130888
     20 C15          13.330     -9.593      0.798 bc            1 LIG       -0.132151
     21 C16          13.253     -8.207      0.881 bd            1 LIG       -0.193396
     22 N3           11.737     -5.523      1.176 bf            1 LIG       -0.541353
     23 C17          11.794     -4.183      0.761 bg            1 LIG        0.158670
     24 C18          10.774     -3.710     -0.057 bh            1 LIG        0.138998
     25 F1            9.753     -4.530     -0.407 bj            1 LIG       -0.163856
     26 C19          10.809     -2.405     -0.540 bk            1 LIG       -0.276289
     27 C20          11.858     -1.554     -0.186 bl            1 LIG        0.138573
     28 Cl1          11.906      0.065     -0.779 bm            1 LIG       -0.133102
     29 C21          12.859     -2.022      0.669 bn            1 LIG       -0.270821
     30 C22          12.866     -3.344      1.131 bo            1 LIG       -0.033998
     31 C23          14.016     -3.872      1.978 bp            1 LIG        0.271978
     32 O3           13.809     -3.470      3.334 bq            1 LIG       -0.525924
     33 H1           15.664     -8.378     12.558 bs            1 LIG        0.200334
     34 H2           16.864     -7.092     12.410 bt            1 LIG        0.200334
     35 H3           16.796     -8.383     11.203 bu            1 LIG        0.200334
     36 H4           14.911     -8.456      9.631 bv            1 LIG        0.200334
     37 H5           13.561     -7.303      9.763 bw            1 LIG        0.200334
     38 H6           13.834     -8.505     11.047 bx            1 LIG        0.200334
     39 H7           16.479     -5.214     10.527 by            1 LIG        0.006964
     40 H8           16.631     -6.564      9.409 bz            1 LIG        0.006964
     41 H9           14.332     -6.120      8.505 cb            1 LIG        0.104229
     42 H10          14.126     -4.763      9.631 ci            1 LIG        0.104229
     43 H11          14.069     -4.822      6.332 cj            1 LIG        0.393853
     44 H12          13.963     -2.306      5.456 ck            1 LIG        0.075070
     45 H13          15.645     -2.529      5.780 cm            1 LIG        0.075070
     46 H14          15.806     -3.364      3.739 cn            1 LIG        0.023198
     47 H15          15.959     -5.593      4.838 ct            1 LIG        0.041145
     48 H16          14.217     -5.785      4.734 cw            1 LIG        0.041145
     49 H17          16.181     -5.601      2.427 da            1 LIG        0.040749
     50 H18          15.251     -6.999      2.871 db            1 LIG        0.040749
     51 H19          14.414     -5.658      0.866 dc            1 LIG        0.014257
     52 H20          12.367     -5.794      3.120 dd            1 LIG        0.044240
     53 H21          11.928     -7.912      3.998 de            1 LIG        0.139865
     54 H22          12.065    -10.379      3.845 df            1 LIG        0.154686
     55 H23          12.961    -11.445      1.808 dg            1 LIG        0.156903
     56 H24          13.710    -10.064     -0.097 dh            1 LIG        0.154686
     57 H25          13.570     -7.607      0.041 di            1 LIG        0.139865
     58 H26          10.955     -6.095      0.881 dj            1 LIG        0.355123
     59 H27          10.020     -2.054     -1.188 dk            1 LIG        0.194464
     60 H28          13.666     -1.360      0.946 dl            1 LIG        0.171349
     61 H29          14.939     -3.428      1.603 dm            1 LIG        0.012389
     62 H30          14.636     -6.357     11.655 dn            1 LIG        0.277734
@<TRIPOS>BOND
        1  1  2  1
        2  1  33  1
        3  1  34  1
        4  1  35  1
        5  2  3  1
        6  2  4  1
        7  2  62  1
        8  3  36  1
        9  3  37  1
        10  3  38  1
        11  4  5  1
        12  4  39  1
        13  4  40  1
        14  5  6  1
        15  5  41  1
        16  5  42  1
        17  6  7  2
        18  6  8  2
        19  6  9  1
        20  9  10  1
        21  9  43  1
        22  10  11  1
        23  10  44  1
        24  10  45  1
        25  11  12  1
        26  11  32  1
        27  11  46  1
        28  12  13  1
        29  12  47  1
        30  12  48  1
        31  13  14  1
        32  13  49  1
        33  13  50  1
        34  14  15  1
        35  14  31  1
        36  14  51  1
        37  15  16  1
        38  15  22  1
        39  15  52  1
        40  16  17  2
        41  16  21  1
        42  17  18  1
        43  17  53  1
        44  18  19  2
        45  18  54  1
        46  19  20  1
        47  19  55  1
        48  20  21  2
        49  20  56  1
        50  21  57  1
        51  22  23  1
        52  22  58  1
        53  23  24  2
        54  23  30  1
        55  24  25  1
        56  24  26  1
        57  26  27  2
        58  26  59  1
        59  27  28  1
        60  27  29  1
        61  29  30  2
        62  29  60  1
        63  30  31  1
        64  31  32  1
        65  31  61  1
@<TRIPOS>SUBSTRUCTURE
       1 LIG             1 RESIDUE    0 **** ROOT      0
