@<TRIPOS>MOLECULE
LIG
48 52
SMALL
USER_CHARGES
@<TRIPOS>ATOM
      1 C1           -6.394     12.331    -11.984 aa            1 LIG        0.096769
      2 C2           -6.545     11.762    -10.722 ab            1 LIG       -0.238782
      3 C3           -7.739     10.532    -13.049 ad            1 LIG       -0.207865
      4 C4           -6.989     11.742    -13.122 ae            1 LIG       -0.196591
      5 C5           -7.845      9.976    -11.783 af            1 LIG        0.067017
      6 C6           -7.276     10.570    -10.614 ah            1 LIG        0.056791
      7 C7           -7.640      9.711     -9.525 ai            1 LIG        0.099967
      8 N1           -8.307      8.685    -10.013 aj            1 LIG       -0.425310
      9 N2           -8.454      8.825    -11.316 ak            1 LIG       -0.027794
     10 C8           -7.347      9.868     -8.045 an            1 LIG        0.033842
     11 C9           -5.557     13.609    -12.174 ao            1 LIG        0.227295
     12 C10          -5.969     10.480     -7.744 ap            1 LIG        0.091403
     13 C11          -5.862     11.750     -7.162 aq            1 LIG       -0.195135
     14 C12          -4.600     12.299     -6.907 av            1 LIG       -0.194005
     15 C13          -3.450     11.583     -7.229 aw            1 LIG        0.106741
     16 C14          -3.555     10.309     -7.803 ax            1 LIG       -0.194005
     17 C15          -4.821      9.767     -8.055 ay            1 LIG       -0.195135
     18 C16          -2.096     12.166     -6.965 az            1 LIG        0.035853
     19 C17          -1.738     13.413     -6.468 bb            1 LIG       -0.192978
     20 N3           -0.407     13.450     -6.413 bc            1 LIG        0.225038
     21 N4            0.181     12.357     -6.817 bd            1 LIG       -0.439209
     22 C18          -0.799     11.548     -7.187 bf            1 LIG       -0.015577
     23 C19           0.428     14.555     -5.966 bg            1 LIG       -0.203210
     24 N5           -4.771     14.211    -11.203 bh            1 LIG        0.012057
     25 C20          -4.206     15.285    -11.786 bj            1 LIG       -0.159284
     26 C21          -4.688     15.327    -13.100 bk            1 LIG        0.014325
     27 N6           -5.503     14.277    -13.310 bl            1 LIG       -0.507558
     28 C22          -4.536     13.823     -9.799 bm            1 LIG       -0.184914
     29 H1           -6.122     12.169     -9.864 bn            1 LIG        0.162386
     30 H2           -8.166     10.092    -13.937 bo            1 LIG        0.134332
     31 H3           -6.869     12.208    -14.081 bp            1 LIG        0.140906
     32 H4           -8.953      8.122    -11.866 bq            1 LIG        0.280135
     33 H5           -7.431      8.917     -7.516 bs            1 LIG        0.035273
     34 H6           -8.094     10.533     -7.601 bt            1 LIG        0.035273
     35 H7           -6.751     12.313     -6.915 bu            1 LIG        0.137124
     36 H8           -4.519     13.280     -6.458 bv            1 LIG        0.136997
     37 H9           -2.673      9.753     -8.047 bw            1 LIG        0.136997
     38 H10          -4.892      8.784     -8.503 bx            1 LIG        0.137124
     39 H11          -2.332     14.265     -6.160 by            1 LIG        0.149271
     40 H12          -0.615     10.572     -7.581 bz            1 LIG        0.145122
     41 H13           1.043     14.227     -5.133 cb            1 LIG        0.104119
     42 H14          -0.188     15.401     -5.657 ci            1 LIG        0.104119
     43 H15           1.079     14.865     -6.782 cj            1 LIG        0.104119
     44 H16          -3.538     15.934    -11.248 ck            1 LIG        0.139577
     45 H17          -4.439     16.056    -13.857 cm            1 LIG        0.139483
     46 H18          -4.052     14.659     -9.291 cn            1 LIG        0.095966
     47 H19          -3.844     12.969     -9.755 ct            1 LIG        0.095966
     48 H20          -5.421     13.799     -9.188 cw            1 LIG        0.095966
@<TRIPOS>BOND
        1  1  2  2
        2  1  4  1
        3  1  11  1
        4  2  6  1
        5  2  29  1
        6  3  4  2
        7  3  5  1
        8  3  30  1
        9  4  31  1
        10  5  6  2
        11  5  9  1
        12  6  7  1
        13  7  8  2
        14  7  10  1
        15  8  9  1
        16  9  32  1
        17  10  12  1
        18  10  33  1
        19  10  34  1
        20  11  24  1
        21  11  27  2
        22  12  13  2
        23  12  17  1
        24  13  14  1
        25  13  35  1
        26  14  15  2
        27  14  36  1
        28  15  16  1
        29  15  18  1
        30  16  17  2
        31  16  37  1
        32  17  38  1
        33  18  19  2
        34  18  22  1
        35  19  20  1
        36  19  39  1
        37  20  21  1
        38  20  23  1
        39  21  22  2
        40  22  40  1
        41  23  41  1
        42  23  42  1
        43  23  43  1
        44  24  25  1
        45  24  28  1
        46  25  26  2
        47  25  44  1
        48  26  27  1
        49  26  45  1
        50  28  46  1
        51  28  47  1
        52  28  48  1
@<TRIPOS>SUBSTRUCTURE
       1 LIG             1 RESIDUE    0 **** ROOT      0
