@<TRIPOS>MOLECULE
LIG
43 46
SMALL
USER_CHARGES
@<TRIPOS>ATOM
      1 C1          -14.721    -14.602    -27.663 aa            1 LIG        0.165756
      2 C2          -15.223    -15.442    -26.658 ab            1 LIG        0.170862
      3 C3          -14.875    -13.221    -27.541 ad            1 LIG       -0.270628
      4 C4          -15.901    -14.891    -25.561 ae            1 LIG       -0.049013
      5 N1          -15.037    -16.833    -26.755 af            1 LIG       -0.480880
      6 C5          -15.535    -12.676    -26.437 ah            1 LIG        0.228337
      7 C6          -16.057    -13.507    -25.444 ai            1 LIG       -0.252054
      8 C7          -16.466    -15.835    -24.520 aj            1 LIG        0.603536
      9 N2          -16.154    -17.134    -24.783 ak            1 LIG       -0.400373
     10 O1          -17.159    -15.515    -23.554 an            1 LIG       -0.571564
     11 C8          -15.477    -17.663    -25.867 ao            1 LIG        0.332962
     12 C9          -15.319    -19.132    -26.003 ap            1 LIG        0.107793
     13 C10         -14.674    -19.648    -27.135 aq            1 LIG       -0.183094
     14 C11         -14.521    -21.016    -27.308 av            1 LIG       -0.193046
     15 C12         -14.996    -21.912    -26.346 aw            1 LIG        0.062421
     16 C13         -15.636    -21.406    -25.210 ax            1 LIG       -0.193046
     17 C14         -15.809    -20.032    -25.044 ay            1 LIG       -0.183094
     18 F1          -14.070    -15.107    -28.738 az            1 LIG       -0.136597
     19 F2          -15.674    -11.336    -26.335 bb            1 LIG       -0.141094
     20 C15         -14.882    -23.415    -26.556 bc            1 LIG        0.103015
     21 C16         -16.272    -24.063    -26.581 bd            1 LIG       -0.076396
     22 C17         -16.162    -25.596    -26.669 bf            1 LIG        0.027712
     23 N3          -15.385    -26.108    -25.540 bg            1 LIG       -0.313023
     24 C18         -14.020    -25.585    -25.581 bh            1 LIG        0.027712
     25 C19         -14.037    -24.052    -25.445 bj            1 LIG       -0.076396
     26 H1          -14.476    -12.569    -28.303 bk            1 LIG        0.203372
     27 H2          -16.573    -13.070    -24.600 bl            1 LIG        0.207958
     28 H3          -16.589    -17.784    -24.142 bm            1 LIG        0.331543
     29 H4          -14.297    -18.991    -27.908 bn            1 LIG        0.175391
     30 H5          -14.047    -21.360    -28.214 bo            1 LIG        0.150444
     31 H6          -16.017    -22.076    -24.453 bp            1 LIG        0.150444
     32 H7          -16.328    -19.686    -24.161 bq            1 LIG        0.175391
     33 H8          -14.392    -23.561    -27.519 bs            1 LIG        0.005322
     34 H9          -16.829    -23.782    -25.687 bt            1 LIG        0.063334
     35 H10         -16.844    -23.683    -27.427 bu            1 LIG        0.063334
     36 H11         -15.699    -25.894    -27.609 bv            1 LIG        0.099998
     37 H12         -17.156    -26.041    -26.653 bw            1 LIG        0.099998
     38 H13         -15.347    -27.115    -25.605 bx            1 LIG        0.318500
     39 H14         -13.530    -25.884    -26.508 by            1 LIG        0.099998
     40 H15         -13.441    -26.024    -24.767 bz            1 LIG        0.099998
     41 H16         -14.432    -23.770    -24.470 cb            1 LIG        0.063334
     42 H17         -13.019    -23.665    -25.485 ci            1 LIG        0.063334
     43 H18         -15.824    -25.818    -24.678 cj            1 LIG        0.318500
@<TRIPOS>BOND
        1  1  2  2
        2  1  3  1
        3  1  18  1
        4  2  4  1
        5  2  5  1
        6  3  6  2
        7  3  26  1
        8  4  7  2
        9  4  8  1
        10  5  11  2
        11  6  7  1
        12  6  19  1
        13  7  27  1
        14  8  9  1
        15  8  10  2
        16  9  11  1
        17  9  28  1
        18  11  12  1
        19  12  13  2
        20  12  17  1
        21  13  14  1
        22  13  29  1
        23  14  15  2
        24  14  30  1
        25  15  16  1
        26  15  20  1
        27  16  17  2
        28  16  31  1
        29  17  32  1
        30  20  21  1
        31  20  25  1
        32  20  33  1
        33  21  22  1
        34  21  34  1
        35  21  35  1
        36  22  23  1
        37  22  36  1
        38  22  37  1
        39  23  24  1
        40  23  38  1
        41  23  43  1
        42  24  25  1
        43  24  39  1
        44  24  40  1
        45  25  41  1
        46  25  42  1
@<TRIPOS>SUBSTRUCTURE
       1 LIG             1 RESIDUE    0 **** ROOT      0
