@<TRIPOS>MOLECULE
LIG
46 50
SMALL
USER_CHARGES
@<TRIPOS>ATOM
      1 N1           94.793     46.531    266.756 aa            1 LIG       -0.491852
      2 N2           95.558     48.964    267.933 ab            1 LIG       -0.487053
      3 C1           96.447     47.957    267.744 ad            1 LIG        0.164196
      4 C2           96.062     46.745    267.184 ae            1 LIG        0.171387
      5 C3           94.270     48.779    267.505 af            1 LIG        0.244459
      6 C4           93.890     47.541    266.899 ah            1 LIG        0.295123
      7 C5           92.560     47.345    266.459 ai            1 LIG       -0.309018
      8 C6           91.606     48.340    266.656 aj            1 LIG        0.279928
      9 C7           91.970     49.531    267.277 ak            1 LIG       -0.243691
     10 C8           93.284     49.796    267.680 an            1 LIG       -0.002755
     11 C9           93.591     51.093    268.326 ao            1 LIG        0.066190
     12 N3           90.261     48.154    266.304 ap            1 LIG       -0.544164
     13 C10          94.567     51.947    267.798 aq            1 LIG       -0.183207
     14 C11          94.866     53.182    268.374 av            1 LIG       -0.195840
     15 C12          92.892     51.443    269.484 aw            1 LIG       -0.235895
     16 C13          93.201     52.668    270.077 ax            1 LIG        0.062874
     17 C14          94.151     53.568    269.516 ay            1 LIG        0.069138
     18 C15          94.149     54.727    270.347 az            1 LIG       -0.221042
     19 C16          93.277     54.489    271.384 bb            1 LIG       -0.137995
     20 N4           92.727     53.245    271.243 bc            1 LIG        0.035307
     21 C17          91.810     52.633    272.186 bd            1 LIG       -0.189896
     22 C18          89.646     47.377    265.300 bf            1 LIG        0.237159
     23 C19          90.357     47.031    264.142 bg            1 LIG       -0.206758
     24 C20          89.748     46.312    263.115 bh            1 LIG       -0.128901
     25 C21          88.415     45.929    263.228 bj            1 LIG       -0.145356
     26 C22          87.688     46.270    264.365 bk            1 LIG       -0.176368
     27 C23          88.290     46.992    265.402 bl            1 LIG        0.102384
     28 C24          87.468     47.302    266.568 bm            1 LIG        0.210999
     29 N5           86.816     47.554    267.490 bn            1 LIG       -0.416513
     30 H1           97.468     48.144    268.043 bo            1 LIG        0.051881
     31 H2           96.768     45.946    267.019 bp            1 LIG        0.056080
     32 H3           92.277     46.395    266.029 bq            1 LIG        0.157729
     33 H4           91.213     50.285    267.445 bs            1 LIG        0.159768
     34 H5           89.605     48.628    266.909 bt            1 LIG        0.345572
     35 H6           95.098     51.656    266.899 bu            1 LIG        0.133550
     36 H7           95.620     53.828    267.932 bv            1 LIG        0.137719
     37 H8           92.146     50.782    269.912 bw            1 LIG        0.160609
     38 H9           94.766     55.622    270.242 bx            1 LIG        0.141784
     39 H10          93.008     55.096    272.235 by            1 LIG        0.147079
     40 H11          91.621     53.309    273.021 bz            1 LIG        0.095896
     41 H12          92.251     51.717    272.576 cb            1 LIG        0.095896
     42 H13          90.874     52.397    271.683 ci            1 LIG        0.095896
     43 H14          91.387     47.328    264.027 cj            1 LIG        0.154681
     44 H15          90.308     46.036    262.234 ck            1 LIG        0.148148
     45 H16          87.944     45.351    262.447 cm            1 LIG        0.145098
     46 H17          86.658     45.942    264.438 cn            1 LIG        0.149772
@<TRIPOS>BOND
        1  1  4  2
        2  1  6  1
        3  2  3  2
        4  2  5  1
        5  3  4  1
        6  3  30  1
        7  4  31  1
        8  5  6  2
        9  5  10  1
        10  6  7  1
        11  7  8  2
        12  7  32  1
        13  8  9  1
        14  8  12  1
        15  9  10  2
        16  9  33  1
        17  10  11  1
        18  11  13  2
        19  11  15  1
        20  12  22  1
        21  12  34  1
        22  13  14  1
        23  13  35  1
        24  14  17  2
        25  14  36  1
        26  15  16  2
        27  15  37  1
        28  16  17  1
        29  16  20  1
        30  17  18  1
        31  18  19  2
        32  18  38  1
        33  19  20  1
        34  19  39  1
        35  20  21  1
        36  21  40  1
        37  21  41  1
        38  21  42  1
        39  22  23  2
        40  22  27  1
        41  23  24  1
        42  23  43  1
        43  24  25  2
        44  24  44  1
        45  25  26  1
        46  25  45  1
        47  26  27  2
        48  26  46  1
        49  27  28  1
        50  28  29  3
@<TRIPOS>SUBSTRUCTURE
       1 LIG             1 RESIDUE    0 **** ROOT      0
