@<TRIPOS>MOLECULE
LIG
43 45
SMALL
USER_CHARGES
@<TRIPOS>ATOM
      1 N1           24.540     41.589      3.309 aa            1 LIG       -0.483977
      2 C1           24.898     42.821      2.601 ab            1 LIG        0.053470
      3 C2           26.282     43.337      3.010 ad            1 LIG       -0.136611
      4 C3           27.397     42.299      2.809 ae            1 LIG        0.703868
      5 C4           26.951     40.975      3.474 af            1 LIG       -0.136611
      6 C5           25.537     40.542      3.004 ah            1 LIG        0.053470
      7 C6           19.591     40.548      5.780 ai            1 LIG       -0.065923
      8 C7           19.393     40.848      7.143 aj            1 LIG        0.068907
      9 C8           18.152     40.581      7.742 ak            1 LIG        0.106934
     10 C9           17.122     40.019      6.987 an            1 LIG       -0.195116
     11 C10          17.308     39.741      5.636 ao            1 LIG       -0.137890
     12 C11          18.534     40.019      5.038 ap            1 LIG       -0.182865
     13 C12          20.903     40.769      5.107 aq            1 LIG        0.319947
     14 N2           20.908     41.719      4.142 av            1 LIG       -0.530608
     15 C13          22.063     41.985      3.479 aw            1 LIG        0.254249
     16 C14          23.262     41.308      3.812 ax            1 LIG        0.529754
     17 N3           23.228     40.321      4.753 ay            1 LIG       -0.609016
     18 C15          22.068     40.052      5.394 az            1 LIG        0.530387
     19 Cl1          17.860     40.944      9.407 bb            1 LIG       -0.093497
     20 Cl2          20.649     41.607      8.067 bc            1 LIG       -0.087481
     21 N4           22.080     39.035      6.340 bd            1 LIG       -0.951132
     22 N5           28.640     42.820      3.545 bf            1 LIG       -1.197320
     23 C16          27.793     42.129      1.330 bg            1 LIG       -0.389538
     24 H1           24.818     42.686      1.520 bh            1 LIG        0.082471
     25 H2           24.229     43.615      2.903 bj            1 LIG        0.082471
     26 H3           26.216     43.621      4.060 bk            1 LIG        0.046076
     27 H4           26.481     44.258      2.461 bl            1 LIG        0.046076
     28 H5           26.913     41.072      4.564 bm            1 LIG        0.046076
     29 H6           27.682     40.189      3.285 bn            1 LIG        0.046076
     30 H7           25.524     40.338      1.933 bo            1 LIG        0.082471
     31 H8           25.295     39.597      3.490 bp            1 LIG        0.082471
     32 H9           16.172     39.803      7.454 bq            1 LIG        0.185763
     33 H10          18.669     39.772      3.992 bs            1 LIG        0.163325
     34 Cl3          21.900     43.135      2.193 bt            1 LIG       -0.162557
     35 H11          21.225     38.790      6.817 bu            1 LIG        0.420392
     36 H12          22.942     38.537      6.529 bv            1 LIG        0.420392
     37 H13          29.427     42.210      3.364 bw            1 LIG        0.506774
     38 H14          26.972     41.761      0.716 bx            1 LIG        0.114259
     39 H15          28.612     41.417      1.225 by            1 LIG        0.114259
     40 H16          28.117     43.072      0.889 bz            1 LIG        0.114259
     41 H17          28.863     43.750      3.218 cb            1 LIG        0.506774
     42 H18          16.509     39.300      5.057 ci            1 LIG        0.171997
     43 H19          28.482     42.875      4.542 cj            1 LIG        0.506774
@<TRIPOS>BOND
        1  1  2  1
        2  1  6  1
        3  1  16  1
        4  2  3  1
        5  2  24  1
        6  2  25  1
        7  3  4  1
        8  3  26  1
        9  3  27  1
        10  4  5  1
        11  4  22  1
        12  4  23  1
        13  5  6  1
        14  5  28  1
        15  5  29  1
        16  6  30  1
        17  6  31  1
        18  7  8  2
        19  7  12  1
        20  7  13  1
        21  8  9  1
        22  8  20  1
        23  9  10  2
        24  9  19  1
        25  10  11  1
        26  10  32  1
        27  11  12  2
        28  11  42  1
        29  12  33  1
        30  13  14  2
        31  13  18  1
        32  14  15  1
        33  15  16  2
        34  15  34  1
        35  16  17  1
        36  17  18  2
        37  18  21  1
        38  21  35  1
        39  21  36  1
        40  22  37  1
        41  22  41  1
        42  22  43  1
        43  23  38  1
        44  23  39  1
        45  23  40  1
@<TRIPOS>SUBSTRUCTURE
       1 LIG             1 RESIDUE    0 **** ROOT      0
