@<TRIPOS>MOLECULE
LIG
46 48
SMALL
USER_CHARGES
@<TRIPOS>ATOM
      1 N1           24.559     41.399      2.932 aa            1 LIG       -0.486938
      2 C1           25.761     40.556      3.089 ab            1 LIG        0.063652
      3 C2           26.871     41.361      3.761 ad            1 LIG       -0.126009
      4 C3           27.223     42.684      3.021 ae            1 LIG        0.397903
      5 C4           25.899     43.474      2.732 af            1 LIG       -0.126009
      6 C5           24.805     42.592      2.099 ah            1 LIG        0.063652
      7 C6           19.688     40.515      5.529 ai            1 LIG       -0.064108
      8 C7           19.397     40.812      6.873 aj            1 LIG        0.052912
      9 C8           18.097     40.610      7.359 ak            1 LIG        0.103072
     10 C9           17.104     40.113      6.515 an            1 LIG       -0.198304
     11 C10          17.395     39.814      5.188 ao            1 LIG       -0.137338
     12 C11          18.678     40.022      4.698 ap            1 LIG       -0.171759
     13 C12          21.031     40.731      4.944 aq            1 LIG        0.309216
     14 N2           21.085     41.751      4.054 av            1 LIG       -0.532022
     15 C13          22.254     41.995      3.429 aw            1 LIG        0.120961
     16 C14          23.388     41.212      3.656 ax            1 LIG        0.536108
     17 N3           23.329     40.187      4.560 ay            1 LIG       -0.621464
     18 C15          22.160     39.946      5.206 az            1 LIG        0.532491
     19 Cl1          17.678     40.986      8.994 bb            1 LIG       -0.107391
     20 Cl2          20.627     41.436      7.928 bc            1 LIG       -0.109497
     21 N4           22.133     38.884      6.109 bd            1 LIG       -0.947816
     22 C16          28.171     43.466      3.925 bf            1 LIG        0.128609
     23 C17          27.960     42.415      1.709 bg            1 LIG       -0.375847
     24 H1           25.542     39.686      3.711 bh            1 LIG        0.069355
     25 H2           26.104     40.164      2.134 bj            1 LIG        0.069355
     26 H3           27.784     40.777      3.877 bk            1 LIG        0.030584
     27 H4           26.543     41.546      4.779 bl            1 LIG        0.030584
     28 H5           26.092     44.327      2.073 bm            1 LIG        0.030584
     29 H6           25.476     43.939      3.624 bn            1 LIG        0.030584
     30 H7           23.909     43.193      1.997 bo            1 LIG        0.069355
     31 H8           25.055     42.303      1.077 bp            1 LIG        0.069355
     32 H9           16.098     39.977      6.883 bq            1 LIG        0.179372
     33 H10          18.887     39.795      3.659 bs            1 LIG        0.172157
     34 H11          22.220     42.819      2.737 bt            1 LIG        0.046445
     35 H12          22.986     38.361      6.290 bu            1 LIG        0.411800
     36 H13          21.288     38.693      6.624 bv            1 LIG        0.411800
     37 H14          27.386     41.813      1.014 bw            1 LIG        0.090050
     38 H15          28.892     41.890      1.926 bx            1 LIG        0.090050
     39 H16          28.230     43.353      1.216 by            1 LIG        0.090050
     40 H17          16.629     39.435      4.531 bz            1 LIG        0.169165
     41 H18          29.222     43.150      3.964 cb            1 LIG        0.042451
     42 N5           27.658     43.564      5.326 ci            1 LIG       -0.497239
     43 H19          28.141     44.466      3.749 cj            1 LIG        0.042451
     44 H20          28.315     44.163      5.863 ck            1 LIG        0.349206
     45 H21          26.750     43.997      5.398 cm            1 LIG        0.349206
     46 H22          27.670     42.673      5.781 cn            1 LIG        0.349206
@<TRIPOS>BOND
        1  1  2  1
        2  1  6  1
        3  1  16  1
        4  2  3  1
        5  2  24  1
        6  2  25  1
        7  3  4  1
        8  3  26  1
        9  3  27  1
        10  4  5  1
        11  4  22  1
        12  4  23  1
        13  5  6  1
        14  5  28  1
        15  5  29  1
        16  6  30  1
        17  6  31  1
        18  7  8  2
        19  7  12  1
        20  7  13  1
        21  8  9  1
        22  8  20  1
        23  9  10  2
        24  9  19  1
        25  10  11  1
        26  10  32  1
        27  11  12  2
        28  11  40  1
        29  12  33  1
        30  13  14  2
        31  13  18  1
        32  14  15  1
        33  15  16  2
        34  15  34  1
        35  16  17  1
        36  17  18  2
        37  18  21  1
        38  21  35  1
        39  21  36  1
        40  22  41  1
        41  22  42  1
        42  22  43  1
        43  23  37  1
        44  23  38  1
        45  23  39  1
        46  42  44  1
        47  42  45  1
        48  42  46  1
@<TRIPOS>SUBSTRUCTURE
       1 LIG             1 RESIDUE    0 **** ROOT      0
