@<TRIPOS>MOLECULE
LIG
48 52
SMALL
USER_CHARGES
@<TRIPOS>ATOM
      1 N1           90.273     48.137    266.312 aa            1 LIG       -0.542704
      2 C1           91.612     48.340    266.673 ab            1 LIG        0.278677
      3 C2           91.971     49.536    267.287 ad            1 LIG       -0.245934
      4 C3           93.286     49.804    267.686 ae            1 LIG       -0.002017
      5 C4           92.567     47.348    266.469 af            1 LIG       -0.310859
      6 C5           93.894     47.545    266.904 ah            1 LIG        0.293625
      7 C6           94.272     48.785    267.509 ai            1 LIG        0.244112
      8 N2           95.561     48.967    267.933 aj            1 LIG       -0.484588
      9 C7           96.447     47.958    267.741 ak            1 LIG        0.163571
     10 C8           96.060     46.747    267.180 an            1 LIG        0.171251
     11 N3           94.795     46.535    266.754 ao            1 LIG       -0.493682
     12 C9           93.590     51.108    268.332 ap            1 LIG        0.068752
     13 C10          94.566     51.959    267.802 aq            1 LIG       -0.176143
     14 C11          94.858     53.193    268.384 av            1 LIG       -0.194520
     15 C12          92.886     51.460    269.486 aw            1 LIG       -0.240296
     16 N4           92.726     53.248    271.261 ax            1 LIG        0.030976
     17 C13          93.198     52.677    270.094 ay            1 LIG        0.061677
     18 C14          94.152     53.574    269.535 az            1 LIG        0.069241
     19 C15          94.157     54.729    270.375 bb            1 LIG       -0.220908
     20 C16          93.343     54.459    271.443 bc            1 LIG       -0.138965
     21 C17          91.741     52.666    272.154 bd            1 LIG       -0.187574
     22 C18          90.424     47.120    264.097 bf            1 LIG        0.172578
     23 C19          89.719     47.351    265.286 bg            1 LIG        0.124717
     24 C20          88.421     46.819    265.408 bh            1 LIG        0.206884
     25 C21          87.892     46.097    264.322 bj            1 LIG       -0.309631
     26 C22          88.664     45.932    263.172 bk            1 LIG        0.237796
     27 N5           89.918     46.429    263.046 bl            1 LIG       -0.494602
     28 O1           87.729     47.030    266.591 bm            1 LIG       -0.371990
     29 C23          86.642     46.164    266.916 bn            1 LIG        0.068426
     30 H1           89.587     48.612    266.881 bo            1 LIG        0.351403
     31 H2           91.211     50.287    267.449 bp            1 LIG        0.145770
     32 H3           92.284     46.401    266.029 bq            1 LIG        0.165358
     33 H4           97.467     48.142    268.044 bs            1 LIG        0.052956
     34 H5           96.768     45.947    267.019 bt            1 LIG        0.054729
     35 H6           95.096     51.664    266.907 bu            1 LIG        0.154406
     36 H7           95.610     53.836    267.943 bv            1 LIG        0.140038
     37 H8           92.144     50.799    269.912 bw            1 LIG        0.131714
     38 H9           94.748     55.623    270.256 bx            1 LIG        0.141739
     39 H10          93.131     55.055    272.318 by            1 LIG        0.145544
     40 H11          92.101     51.706    272.520 bz            1 LIG        0.093442
     41 H12          90.813     52.516    271.604 cb            1 LIG        0.093442
     42 H13          91.552     53.325    273.002 ci            1 LIG        0.093442
     43 H14          91.423     47.503    263.970 cj            1 LIG        0.077609
     44 H15          86.904     45.661    264.351 ck            1 LIG        0.147210
     45 H16          88.276     45.383    262.327 cm            1 LIG        0.062136
     46 H17          86.236     46.460    267.883 cn            1 LIG        0.057065
     47 H18          86.959     45.122    266.999 ct            1 LIG        0.057065
     48 H19          85.827     46.229    266.194 cw            1 LIG        0.057065
@<TRIPOS>BOND
        1  1  2  1
        2  1  23  1
        3  1  30  1
        4  2  3  2
        5  2  5  1
        6  3  4  1
        7  3  31  1
        8  4  7  2
        9  4  12  1
        10  5  6  2
        11  5  32  1
        12  6  7  1
        13  6  11  1
        14  7  8  1
        15  8  9  2
        16  9  10  1
        17  9  33  1
        18  10  11  2
        19  10  34  1
        20  12  13  2
        21  12  15  1
        22  13  14  1
        23  13  35  1
        24  14  18  2
        25  14  36  1
        26  15  17  2
        27  15  37  1
        28  16  17  1
        29  16  20  1
        30  16  21  1
        31  17  18  1
        32  18  19  1
        33  19  20  2
        34  19  38  1
        35  20  39  1
        36  21  40  1
        37  21  41  1
        38  21  42  1
        39  22  23  2
        40  22  27  1
        41  22  43  1
        42  23  24  1
        43  24  25  2
        44  24  28  1
        45  25  26  1
        46  25  44  1
        47  26  27  2
        48  26  45  1
        49  28  29  1
        50  29  46  1
        51  29  47  1
        52  29  48  1
@<TRIPOS>SUBSTRUCTURE
       1 LIG             1 RESIDUE    0 **** ROOT      0
