@<TRIPOS>MOLECULE
LIG
51 54
SMALL
USER_CHARGES
@<TRIPOS>ATOM
      1 C1           -4.255     -3.103     13.571 aa            1 LIG        0.064592
      2 O1           -3.874     -2.353     14.717 ab            1 LIG       -0.353013
      3 C2           -2.526     -2.106     14.805 ad            1 LIG        0.191830
      4 C3           -1.750     -2.867     15.680 ae            1 LIG       -0.222186
      5 C4           -0.386     -2.611     15.815 af            1 LIG       -0.225636
      6 C5            0.222     -1.583     15.089 ah            1 LIG        0.271116
      7 N1            1.593     -1.349     15.306 ai            1 LIG       -0.567184
      8 C6            2.545     -0.469     14.754 aj            1 LIG        0.445487
      9 N2            2.218      0.355     13.719 ak            1 LIG       -0.554971
     10 C7            3.123      1.241     13.218 an            1 LIG        0.212261
     11 C8            4.421      1.304     13.717 ao            1 LIG       -0.119423
     12 N3            4.748      0.492     14.765 ap            1 LIG        0.062083
     13 C9            5.890      0.384     15.504 aq            1 LIG       -0.164159
     14 C10           5.572     -0.509     16.518 av            1 LIG        0.030738
     15 N4            4.382     -1.054     16.392 aw            1 LIG       -0.516940
     16 C11           3.833     -0.417     15.325 ax            1 LIG        0.172145
     17 C12           2.656      2.156     12.134 ay            1 LIG        0.052352
     18 C13           1.314      2.558     12.042 az            1 LIG       -0.241050
     19 C14           0.866      3.371     10.989 bb            1 LIG        0.009973
     20 C15           1.788      3.808     10.032 bc            1 LIG       -0.177554
     21 C16           3.129      3.450     10.128 bd            1 LIG       -0.195413
     22 C17           3.557      2.628     11.167 bf            1 LIG        0.097481
     23 C18           4.997      2.213     11.210 bg            1 LIG       -0.242092
     24 C19          -0.588      3.730     10.843 bh            1 LIG        0.751551
     25 O2           -1.109      3.702      9.726 bj            1 LIG       -0.623311
     26 N5           -1.218      4.096     11.983 bk            1 LIG       -0.926239
     27 C20          -0.566     -0.826     14.211 bl            1 LIG       -0.297605
     28 C21          -1.939     -1.076     14.058 bm            1 LIG        0.201239
     29 O3           -2.699     -0.308     13.199 bn            1 LIG       -0.348575
     30 C22          -2.002      0.672     12.522 bo            1 LIG        0.064589
     31 H1           -5.329     -3.289     13.594 bp            1 LIG        0.056135
     32 H2           -3.745     -4.067     13.545 bq            1 LIG        0.056135
     33 H3           -4.027     -2.563     12.651 bs            1 LIG        0.056135
     34 H4           -2.210     -3.653     16.260 bt            1 LIG        0.158950
     35 H5            0.191     -3.211     16.503 bu            1 LIG        0.188781
     36 H6            2.026     -1.889     16.044 bv            1 LIG        0.362280
     37 H7            5.172      2.001     13.370 bw            1 LIG        0.122200
     38 H8            6.766      0.973     15.289 bx            1 LIG        0.148470
     39 H9            6.209     -0.834     17.330 by            1 LIG        0.148286
     40 H10           0.607      2.188     12.770 bz            1 LIG        0.154184
     41 H11           1.452      4.421      9.206 cb            1 LIG        0.168720
     42 H12           3.832      3.789      9.380 ci            1 LIG        0.150562
     43 H13           5.535      2.678     10.384 cj            1 LIG        0.082478
     44 H14           5.066      1.128     11.124 ck            1 LIG        0.082478
     45 H15           5.438      2.530     12.155 cm            1 LIG        0.082478
     46 H16          -2.190      4.353     11.927 cn            1 LIG        0.405400
     47 H17          -0.706      4.117     12.849 ct            1 LIG        0.405400
     48 H18          -0.154     -0.020     13.630 cw            1 LIG        0.150728
     49 H19          -2.685      1.221     11.873 da            1 LIG        0.056036
     50 H20          -1.220      0.211     11.919 db            1 LIG        0.056036
     51 H21          -1.552      1.359     13.239 dc            1 LIG        0.056036
@<TRIPOS>BOND
        1  1  2  1
        2  1  31  1
        3  1  32  1
        4  1  33  1
        5  2  3  1
        6  3  4  2
        7  3  28  1
        8  4  5  1
        9  4  34  1
        10  5  6  2
        11  5  35  1
        12  6  7  1
        13  6  27  1
        14  7  8  1
        15  7  36  1
        16  8  9  2
        17  8  16  1
        18  9  10  1
        19  10  11  2
        20  10  17  1
        21  11  12  1
        22  11  37  1
        23  12  13  1
        24  12  16  1
        25  13  14  2
        26  13  38  1
        27  14  15  1
        28  14  39  1
        29  15  16  2
        30  17  18  2
        31  17  22  1
        32  18  19  1
        33  18  40  1
        34  19  20  2
        35  19  24  1
        36  20  21  1
        37  20  41  1
        38  21  22  2
        39  21  42  1
        40  22  23  1
        41  23  43  1
        42  23  44  1
        43  23  45  1
        44  24  25  2
        45  24  26  1
        46  26  46  1
        47  26  47  1
        48  27  28  2
        49  27  48  1
        50  28  29  1
        51  29  30  1
        52  30  49  1
        53  30  50  1
        54  30  51  1
@<TRIPOS>SUBSTRUCTURE
       1 LIG             1 RESIDUE    0 **** ROOT      0
