@<TRIPOS>MOLECULE
LIG
34 35
SMALL
USER_CHARGES
@<TRIPOS>ATOM
      1 C1           27.344      0.218    -11.489 aa            1 LIG        0.260282
      2 C2           24.814     -0.035    -11.493 ab            1 LIG        0.075892
      3 C3           26.036     -0.216    -10.813 ad            1 LIG       -0.039219
      4 C4           26.028     -0.780     -9.519 ae            1 LIG       -0.023223
      5 C5           24.803     -1.084     -8.911 af            1 LIG       -0.179796
      6 C6           23.608     -0.936     -9.607 ah            1 LIG       -0.202532
      7 C7           23.603     -0.437    -10.913 ai            1 LIG        0.233936
      8 O1           22.468     -0.308    -11.687 aj            1 LIG       -0.296428
      9 C8           21.235     -0.582    -11.184 ak            1 LIG        0.276261
     10 C9           20.669     -1.835    -11.399 an            1 LIG       -0.277259
     11 C10          19.417     -2.113    -10.863 ao            1 LIG        0.230524
     12 C11          18.739     -1.140    -10.137 ap            1 LIG       -0.272908
     13 C12          19.289      0.126     -9.956 aq            1 LIG        0.169156
     14 Cl1          18.430      1.349     -9.095 av            1 LIG       -0.102271
     15 C13          20.549      0.396    -10.470 aw            1 LIG       -0.278959
     16 S1           27.536     -1.100     -8.561 ax            1 LIG        0.869680
     17 O2           27.192     -2.017     -7.476 ay            1 LIG       -0.517772
     18 O3           28.629     -1.492     -9.463 az            1 LIG       -0.517772
     19 C14          27.921      0.606     -7.846 bb            1 LIG        0.271252
     20 F1           27.895      1.480     -8.851 bc            1 LIG       -0.178883
     21 F2           26.988      0.873     -6.943 bd            1 LIG       -0.178883
     22 C15          24.768      0.591    -12.812 bf            1 LIG        0.233824
     23 N1           24.740      1.087    -13.858 bg            1 LIG       -0.351033
     24 O4           27.751      1.498    -11.056 bh            1 LIG       -0.707080
     25 F3           18.855     -3.322    -11.051 bj            1 LIG       -0.147582
     26 H1           28.138     -0.485    -11.336 bk            1 LIG        0.046620
     27 H2           27.279      0.185    -12.569 bl            1 LIG        0.046620
     28 H3           24.767     -1.458     -7.898 bm            1 LIG        0.197015
     29 H4           22.688     -1.236     -9.123 bn            1 LIG        0.182956
     30 H5           21.204     -2.588    -11.956 bo            1 LIG        0.199185
     31 H6           17.794     -1.382     -9.702 bp            1 LIG        0.196884
     32 H7           20.993      1.359    -10.282 bq            1 LIG        0.175525
     33 H8           28.893      0.629     -7.356 bs            1 LIG        0.127172
     34 H9           28.452      1.811    -11.674 bt            1 LIG        0.478817
@<TRIPOS>BOND
        1  1  3  1
        2  1  24  1
        3  1  26  1
        4  1  27  1
        5  2  3  2
        6  2  7  1
        7  2  22  1
        8  3  4  1
        9  4  5  2
        10  4  16  1
        11  5  6  1
        12  5  28  1
        13  6  7  2
        14  6  29  1
        15  7  8  1
        16  8  9  1
        17  9  10  2
        18  9  15  1
        19  10  11  1
        20  10  30  1
        21  11  12  2
        22  11  25  1
        23  12  13  1
        24  12  31  1
        25  13  14  1
        26  13  15  2
        27  15  32  1
        28  16  17  2
        29  16  18  2
        30  16  19  1
        31  19  20  1
        32  19  21  1
        33  19  33  1
        34  22  23  3
        35  24  34  1
@<TRIPOS>SUBSTRUCTURE
       1 LIG             1 RESIDUE    0 **** ROOT      0
