CHEMBL3402741_400
     RDKit          3D

 71 73  0  0  1  0  0  0  0  0999 V2000
   24.3934   31.0600   48.1947 C   0  0  0  0  0  0  0  0  0  0  0  0
   24.5318   32.4351   47.5178 C   0  0  0  0  0  0  0  0  0  0  0  0
   25.8474   33.1258   47.9679 N   0  0  0  0  0  0  0  0  0  0  0  0
   26.5614   33.7965   46.7640 C   0  0  0  0  0  0  0  0  0  0  0  0
   27.9647   34.3057   47.1323 C   0  0  0  0  0  0  0  0  0  0  0  0
   25.7058   34.0801   49.1798 C   0  0  0  0  0  0  0  0  0  0  0  0
   24.9918   33.4384   50.3755 C   0  0  0  0  0  0  0  0  0  0  0  0
   25.0659   34.3430   51.6089 C   0  0  0  0  0  0  0  0  0  0  0  0
   24.1175   33.9028   52.5724 O   0  0  0  0  0  0  0  0  0  0  0  0
   24.3859   33.9251   53.8856 C   0  0  0  0  0  0  0  0  0  0  0  0
   25.4468   34.3252   54.3755 O   0  0  0  0  0  0  0  0  0  0  0  0
   23.2712   33.4382   54.5535 N   0  0  0  0  0  0  0  0  0  0  0  0
   23.1060   33.1249   55.9113 C   0  0  0  0  0  0  0  0  0  0  0  0
   24.1478   33.1259   56.8531 C   0  0  0  0  0  0  0  0  0  0  0  0
   23.9046   32.7376   58.1696 C   0  0  0  0  0  0  0  0  0  0  0  0
   22.6221   32.3505   58.5593 C   0  0  0  0  0  0  0  0  0  0  0  0
   21.5763   32.3408   57.6345 C   0  0  0  0  0  0  0  0  0  0  0  0
   20.1645   31.9343   58.0656 C   0  0  0  0  0  0  0  0  0  0  0  0
   19.8549   30.5223   57.7688 N   0  0  0  0  0  0  0  0  0  0  0  0
   19.5510   30.2568   56.4647 N   0  0  0  0  0  0  0  0  0  0  0  0
   19.2595   29.1097   55.9735 C   0  0  0  0  0  0  0  0  0  0  0  0
   19.1563   27.8215   56.8125 C   0  0  0  0  0  0  0  0  0  0  0  0
   20.1073   27.8033   58.3756 S   0  0  0  0  0  0  0  0  0  0  0  0
   20.2026   29.5875   58.7616 C   0  0  0  0  0  0  0  0  0  0  0  0
   20.6464   29.8843   59.8760 O   0  0  0  0  0  0  0  0  0  0  0  0
   18.9915   28.9833   54.5231 C   0  0  0  0  0  0  0  0  0  0  0  0
   19.6332   29.8252   53.6061 C   0  0  0  0  0  0  0  0  0  0  0  0
   19.4012   29.7031   52.2393 C   0  0  0  0  0  0  0  0  0  0  0  0
   18.5163   28.7296   51.7479 C   0  0  0  0  0  0  0  0  0  0  0  0
   18.2446   28.5625   50.4000 O   0  0  0  0  0  0  0  0  0  0  0  0
   19.1055   29.1560   49.4367 C   0  0  0  0  0  0  0  0  0  0  0  0
   17.8607   27.8802   52.6511 C   0  0  0  0  0  0  0  0  0  0  0  0
   16.9971   26.9398   52.1194 O   0  0  0  0  0  0  0  0  0  0  0  0
   16.4627   25.9229   52.9609 C   0  0  0  0  0  0  0  0  0  0  0  0
   18.1083   28.0139   54.0302 C   0  0  0  0  0  0  0  0  0  0  0  0
   21.8257   32.7275   56.3134 C   0  0  0  0  0  0  0  0  0  0  0  0
   23.5731   30.4984   47.7502 H   0  0  0  0  0  0  0  0  0  0  0  0
   24.1797   31.1335   49.2598 H   0  0  0  0  0  0  0  0  0  0  0  0
   25.3026   30.4604   48.0820 H   0  0  0  0  0  0  0  0  0  0  0  0
   24.5871   32.2964   46.4354 H   0  0  0  0  0  0  0  0  0  0  0  0
   23.7064   33.1249   47.7224 H   0  0  0  0  0  0  0  0  0  0  0  0
   26.6370   33.0231   45.9988 H   0  0  0  0  0  0  0  0  0  0  0  0
   25.9021   34.5928   46.4106 H   0  0  0  0  0  0  0  0  0  0  0  0
   28.5048   34.6092   46.2369 H   0  0  0  0  0  0  0  0  0  0  0  0
   28.5529   33.5272   47.6204 H   0  0  0  0  0  0  0  0  0  0  0  0
   27.9289   35.1715   47.7906 H   0  0  0  0  0  0  0  0  0  0  0  0
   26.7289   34.3265   49.4695 H   0  0  0  0  0  0  0  0  0  0  0  0
   25.1999   34.9802   48.8207 H   0  0  0  0  0  0  0  0  0  0  0  0
   23.9440   33.2598   50.1306 H   0  0  0  0  0  0  0  0  0  0  0  0
   25.4418   32.4741   50.6173 H   0  0  0  0  0  0  0  0  0  0  0  0
   26.0877   34.3355   51.9943 H   0  0  0  0  0  0  0  0  0  0  0  0
   24.8319   35.3723   51.3382 H   0  0  0  0  0  0  0  0  0  0  0  0
   22.4685   33.2708   53.9673 H   0  0  0  0  0  0  0  0  0  0  0  0
   25.1545   33.4074   56.5882 H   0  0  0  0  0  0  0  0  0  0  0  0
   24.7114   32.7470   58.8868 H   0  0  0  0  0  0  0  0  0  0  0  0
   22.4449   32.0462   59.5784 H   0  0  0  0  0  0  0  0  0  0  0  0
   20.0051   32.1810   59.1196 H   0  0  0  0  0  0  0  0  0  0  0  0
   19.4401   32.5650   57.5477 H   0  0  0  0  0  0  0  0  0  0  0  0
   19.5363   26.9752   56.2387 H   0  0  0  0  0  0  0  0  0  0  0  0
   18.1120   27.6206   57.0577 H   0  0  0  0  0  0  0  0  0  0  0  0
   20.3227   30.5828   53.9471 H   0  0  0  0  0  0  0  0  0  0  0  0
   19.9142   30.3790   51.5732 H   0  0  0  0  0  0  0  0  0  0  0  0
   18.8121   28.8229   48.4420 H   0  0  0  0  0  0  0  0  0  0  0  0
   20.1452   28.8590   49.5904 H   0  0  0  0  0  0  0  0  0  0  0  0
   19.0323   30.2450   49.4516 H   0  0  0  0  0  0  0  0  0  0  0  0
   15.8022   26.3401   53.7205 H   0  0  0  0  0  0  0  0  0  0  0  0
   17.2616   25.3568   53.4427 H   0  0  0  0  0  0  0  0  0  0  0  0
   15.8754   25.2286   52.3598 H   0  0  0  0  0  0  0  0  0  0  0  0
   17.6031   27.3567   54.7209 H   0  0  0  0  0  0  0  0  0  0  0  0
   21.0158   32.7074   55.5985 H   0  0  0  0  0  0  0  0  0  0  0  0
   26.4631   32.3739   48.2748 H   0  0  0  0  0  0  0  0  0  0  0  0
  1  2  1  0
  1 37  1  0
  1 38  1  0
  1 39  1  0
  2  3  1  0
  2 40  1  0
  2 41  1  0
  3  4  1  0
  3  6  1  0
  3 71  1  0
  4  5  1  0
  4 42  1  0
  4 43  1  0
  5 44  1  0
  5 45  1  0
  5 46  1  0
  6  7  1  0
  6 47  1  0
  6 48  1  0
  7  8  1  0
  7 49  1  0
  7 50  1  0
  8  9  1  0
  8 51  1  0
  8 52  1  0
  9 10  1  0
 10 11  2  0
 10 12  1  0
 12 13  1  0
 12 53  1  0
 13 14  2  0
 13 36  1  0
 14 15  1  0
 14 54  1  0
 15 16  2  0
 15 55  1  0
 16 17  1  0
 16 56  1  0
 17 18  1  0
 17 36  2  0
 18 19  1  0
 18 57  1  0
 18 58  1  0
 19 20  1  0
 19 24  1  0
 20 21  2  0
 21 22  1  0
 21 26  1  0
 22 23  1  0
 22 59  1  0
 22 60  1  0
 23 24  1  0
 24 25  2  0
 26 27  2  0
 26 35  1  0
 27 28  1  0
 27 61  1  0
 28 29  2  0
 28 62  1  0
 29 30  1  0
 29 32  1  0
 30 31  1  0
 31 63  1  0
 31 64  1  0
 31 65  1  0
 32 33  1  0
 32 35  2  0
 33 34  1  0
 34 66  1  0
 34 67  1  0
 34 68  1  0
 35 69  1  0
 36 70  1  0
M  CHG  1   3   1
M  END
>  <s_user_Name>  (1) 
CHEMBL3402741_400

>  <IC50[nM]>  (1) 
400

$$$$
