@<TRIPOS>MOLECULE
LIG
50 54
SMALL
USER_CHARGES
@<TRIPOS>ATOM
      1 C1           91.612     48.337    266.674 aa            1 LIG        0.280713
      2 C2           91.970     49.534    267.286 ab            1 LIG       -0.244983
      3 C3           93.285     49.801    267.683 ad            1 LIG        0.001929
      4 C4           92.568     47.346    266.469 ae            1 LIG       -0.310725
      5 C5           93.894     47.543    266.903 af            1 LIG        0.294639
      6 C6           94.272     48.783    267.508 ah            1 LIG        0.245421
      7 N1           95.561     48.966    267.931 ai            1 LIG       -0.479291
      8 C7           96.448     47.958    267.739 aj            1 LIG        0.166133
      9 C8           96.061     46.747    267.178 ak            1 LIG        0.172727
     10 N2           94.796     46.534    266.752 an            1 LIG       -0.490406
     11 N3           90.275     48.130    266.317 ao            1 LIG       -0.561630
     12 C9           93.594     51.100    268.326 ap            1 LIG        0.071150
     13 C10          94.570     51.946    267.791 aq            1 LIG       -0.250208
     14 C11          94.866     53.177    268.368 av            1 LIG        0.160250
     15 C12          92.897     51.451    269.484 aw            1 LIG       -0.244921
     16 C13          93.208     52.670    270.080 ax            1 LIG        0.063136
     17 C14          94.161     53.570    269.519 ay            1 LIG        0.005132
     18 C15          94.161     54.733    270.356 az            1 LIG       -0.211741
     19 C16          93.277     54.496    271.380 bb            1 LIG       -0.138266
     20 N4           92.733     53.244    271.245 bc            1 LIG        0.041260
     21 C17          91.810     52.633    272.190 bd            1 LIG       -0.192429
     22 C18          89.717     47.349    265.290 bf            1 LIG        0.147544
     23 C19          90.422     47.125    264.100 bg            1 LIG        0.179173
     24 N5           89.919     46.434    263.046 bh            1 LIG       -0.464951
     25 C20          88.663     45.939    263.165 bj            1 LIG        0.240842
     26 C21          87.888     46.097    264.313 bk            1 LIG       -0.271557
     27 C22          88.424     46.805    265.397 bl            1 LIG       -0.024564
     28 S1           87.481     46.891    266.925 bm            1 LIG        0.918973
     29 O1           86.139     46.366    266.668 bn            1 LIG       -0.548408
     30 O2           87.649     48.241    267.479 bo            1 LIG       -0.548408
     31 C23          88.384     45.676    268.047 bp            1 LIG       -0.370198
     32 F1           95.804     53.973    267.801 bq            1 LIG       -0.173425
     33 H1           91.210     50.286    267.450 bs            1 LIG        0.157176
     34 H2           92.287     46.400    266.028 bt            1 LIG        0.162416
     35 H3           97.467     48.142    268.043 bu            1 LIG        0.060363
     36 H4           96.769     45.947    267.018 bv            1 LIG        0.060139
     37 H5           89.585     48.621    266.877 bw            1 LIG        0.373747
     38 H6           95.100     51.657    266.894 bx            1 LIG        0.176011
     39 H7           92.149     50.799    269.912 by            1 LIG        0.143759
     40 H8           94.773     55.612    270.242 bz            1 LIG        0.156532
     41 H9           92.999     55.112    272.220 cb            1 LIG        0.154356
     42 H10          90.876     52.392    271.686 ci            1 LIG        0.098710
     43 H11          91.610     53.300    273.030 cj            1 LIG        0.098710
     44 H12          92.249     51.714    272.579 ck            1 LIG        0.098710
     45 H13          91.422     47.503    263.973 cm            1 LIG        0.090396
     46 H14          88.277     45.384    262.323 cn            1 LIG        0.079766
     47 H15          86.900     45.655    264.364 ct            1 LIG        0.179728
     48 H16          87.870     45.635    269.006 cw            1 LIG        0.148855
     49 H17          89.411     46.013    268.179 da            1 LIG        0.148855
     50 H18          88.366     44.693    267.580 db            1 LIG        0.148855
@<TRIPOS>BOND
        1  1  2  2
        2  1  4  1
        3  1  11  1
        4  2  3  1
        5  2  33  1
        6  3  6  2
        7  3  12  1
        8  4  5  2
        9  4  34  1
        10  5  6  1
        11  5  10  1
        12  6  7  1
        13  7  8  2
        14  8  9  1
        15  8  35  1
        16  9  10  2
        17  9  36  1
        18  11  22  1
        19  11  37  1
        20  12  13  2
        21  12  15  1
        22  13  14  1
        23  13  38  1
        24  14  17  2
        25  14  32  1
        26  15  16  2
        27  15  39  1
        28  16  17  1
        29  16  20  1
        30  17  18  1
        31  18  19  2
        32  18  40  1
        33  19  20  1
        34  19  41  1
        35  20  21  1
        36  21  42  1
        37  21  43  1
        38  21  44  1
        39  22  23  2
        40  22  27  1
        41  23  24  1
        42  23  45  1
        43  24  25  2
        44  25  26  1
        45  25  46  1
        46  26  27  2
        47  26  47  1
        48  27  28  1
        49  28  29  2
        50  28  30  2
        51  28  31  1
        52  31  48  1
        53  31  49  1
        54  31  50  1
@<TRIPOS>SUBSTRUCTURE
       1 LIG             1 RESIDUE    0 **** ROOT      0
