@<TRIPOS>MOLECULE
LIG
53 57
SMALL
USER_CHARGES
@<TRIPOS>ATOM
      1 C1           92.502     47.481    266.501 aa            1 LIG       -0.318453
      2 C2           91.486     48.405    266.770 ab            1 LIG        0.261725
      3 C3           91.831     49.603    267.401 ad            1 LIG       -0.241700
      4 C4           93.133     49.901    267.803 ae            1 LIG        0.003609
      5 C5           93.820     47.709    266.924 af            1 LIG        0.292909
      6 C6           94.166     48.938    267.584 ah            1 LIG        0.244827
      7 N1           95.439     49.139    268.025 ai            1 LIG       -0.484702
      8 C7           96.342     48.146    267.844 aj            1 LIG        0.162729
      9 C8           96.007     46.954    267.224 ak            1 LIG        0.170439
     10 N2           94.757     46.742    266.746 an            1 LIG       -0.499170
     11 C9           93.355     51.175    268.530 ao            1 LIG        0.068167
     12 C10          94.302     52.092    268.103 ap            1 LIG       -0.187566
     13 C11          94.505     53.302    268.768 aq            1 LIG       -0.194974
     14 C12          92.574     51.429    269.669 av            1 LIG       -0.234180
     15 C13          92.840     52.592    270.397 aw            1 LIG        0.061806
     16 C14          93.775     53.561    269.943 ax            1 LIG        0.068693
     17 C15          93.733     54.634    270.882 ay            1 LIG       -0.221641
     18 C16          92.909     54.242    271.926 az            1 LIG       -0.139772
     19 N3           92.346     53.019    271.608 bb            1 LIG        0.032926
     20 N4           90.153     48.094    266.400 bc            1 LIG       -0.379872
     21 C17          91.398     52.297    272.435 bd            1 LIG       -0.188819
     22 C18          89.802     47.171    265.411 bf            1 LIG        0.136605
     23 C19          88.706     46.285    265.471 bg            1 LIG       -0.002242
     24 C20          88.392     45.547    264.324 bh            1 LIG       -0.266530
     25 C21          89.163     45.717    263.176 bj            1 LIG        0.251378
     26 N5           90.301     46.433    263.144 bk            1 LIG       -0.463049
     27 C22          90.608     47.129    264.261 bl            1 LIG        0.187354
     28 S1           87.754     46.052    266.986 bm            1 LIG        0.920191
     29 O1           87.633     47.370    267.602 bn            1 LIG       -0.546330
     30 O2           86.541     45.317    266.627 bo            1 LIG       -0.546330
     31 C23          88.784     44.950    268.146 bp            1 LIG       -0.362888
     32 C24          89.028     48.593    267.193 bq            1 LIG       -0.108015
     33 H1           92.274     46.535    266.034 bs            1 LIG        0.154809
     34 H2           91.080     50.337    267.620 bt            1 LIG        0.147358
     35 H3           97.350     48.326    268.190 bu            1 LIG        0.051262
     36 H4           96.716     46.162    267.081 bv            1 LIG        0.053209
     37 H5           94.885     51.888    267.212 bw            1 LIG        0.168669
     38 H6           95.229     54.011    268.402 bx            1 LIG        0.139407
     39 H7           91.832     50.720    269.993 by            1 LIG        0.149272
     40 H8           94.280     55.566    270.831 bz            1 LIG        0.140341
     41 H9           92.657     54.723    272.836 cb            1 LIG        0.144256
     42 H10          91.258     52.797    273.393 ci            1 LIG        0.094144
     43 H11          91.776     51.290    272.619 cj            1 LIG        0.094144
     44 H12          90.445     52.230    271.911 ck            1 LIG        0.094144
     45 H13          87.611     44.828    264.323 cm            1 LIG        0.184425
     46 H14          88.845     45.240    262.259 cn            1 LIG        0.086492
     47 H15          91.489     47.737    264.234 ct            1 LIG        0.085989
     48 H16          88.209     44.803    269.065 cw            1 LIG        0.152477
     49 H17          89.735     45.432    268.377 da            1 LIG        0.152477
     50 H18          88.951     43.984    267.663 db            1 LIG        0.152477
     51 H19          88.801     47.887    268.001 dc            1 LIG        0.092508
     52 H20          88.138     48.710    266.576 dd            1 LIG        0.092508
     53 H21          89.223     49.581    267.627 de            1 LIG        0.092508
@<TRIPOS>BOND
        1  1  2  2
        2  1  5  1
        3  1  33  1
        4  2  3  1
        5  2  20  1
        6  3  4  2
        7  3  34  1
        8  4  6  1
        9  4  11  1
        10  5  6  2
        11  5  10  1
        12  6  7  1
        13  7  8  2
        14  8  9  1
        15  8  35  1
        16  9  10  2
        17  9  36  1
        18  11  12  2
        19  11  14  1
        20  12  13  1
        21  12  37  1
        22  13  16  2
        23  13  38  1
        24  14  15  2
        25  14  39  1
        26  15  16  1
        27  15  19  1
        28  16  17  1
        29  17  18  2
        30  17  40  1
        31  18  19  1
        32  18  41  1
        33  19  21  1
        34  20  22  1
        35  20  32  1
        36  21  42  1
        37  21  43  1
        38  21  44  1
        39  22  23  2
        40  22  27  1
        41  23  24  1
        42  23  28  1
        43  24  25  2
        44  24  45  1
        45  25  26  1
        46  25  46  1
        47  26  27  2
        48  27  47  1
        49  28  29  2
        50  28  30  2
        51  28  31  1
        52  31  48  1
        53  31  49  1
        54  31  50  1
        55  32  51  1
        56  32  52  1
        57  32  53  1
@<TRIPOS>SUBSTRUCTURE
       1 LIG             1 RESIDUE    0 **** ROOT      0
