@<TRIPOS>MOLECULE
LIG
48 52
SMALL
USER_CHARGES
@<TRIPOS>ATOM
      1 C1           -6.369     12.361    -12.010 aa            1 LIG        0.005957
      2 C2           -6.517     11.805    -10.733 ab            1 LIG       -0.228839
      3 C3           -7.730     10.580    -13.028 ad            1 LIG       -0.204165
      4 C4           -6.992     11.769    -13.123 ae            1 LIG       -0.192111
      5 C5           -7.821     10.010    -11.755 af            1 LIG        0.071937
      6 C6           -7.240     10.620    -10.600 ah            1 LIG        0.055878
      7 C7           -7.609      9.747     -9.512 ai            1 LIG        0.102449
      8 N1           -8.277      8.731     -9.986 aj            1 LIG       -0.416606
      9 N2           -8.414      8.861    -11.298 ak            1 LIG       -0.021725
     10 C8           -7.327      9.891     -8.026 an            1 LIG        0.035978
     11 N3           -4.356     13.718    -11.505 ao            1 LIG       -0.349930
     12 C9           -5.548     13.636    -12.190 ap            1 LIG        0.672550
     13 O1           -5.948     14.532    -12.937 aq            1 LIG       -0.615177
     14 C10          -5.951     10.500     -7.728 av            1 LIG        0.090086
     15 C11          -5.874     11.770     -7.153 aw            1 LIG       -0.248741
     16 C12          -4.609     12.313     -6.914 ax            1 LIG        0.058529
     17 C13          -3.438     11.562     -7.244 ay            1 LIG        0.056968
     18 C14          -3.510     10.284     -7.810 az            1 LIG       -0.203412
     19 C15          -4.796      9.777     -8.046 bb            1 LIG       -0.192945
     20 C16          -4.091     13.543     -6.371 bc            1 LIG       -0.015371
     21 N4           -2.788     13.531     -6.377 bd            1 LIG       -0.421479
     22 N5           -2.382     12.372     -6.879 bf            1 LIG        0.197227
     23 C17          -0.951     12.106     -6.973 bg            1 LIG       -0.198056
     24 C18          -3.711     12.566    -10.845 bh            1 LIG        0.011799
     25 C19          -2.219     12.937    -10.979 bj            1 LIG        0.299025
     26 C20          -2.185     14.461    -10.954 bk            1 LIG       -0.049342
     27 C21          -3.509     14.909    -11.599 bl            1 LIG        0.024434
     28 F1           -1.702     12.474    -12.120 bm            1 LIG       -0.208516
     29 F2           -1.473     12.444     -9.994 bn            1 LIG       -0.208516
     30 H1           -6.089     12.289     -9.870 bo            1 LIG        0.160681
     31 H2           -8.194     10.129    -13.893 bp            1 LIG        0.143417
     32 H3           -6.874     12.230    -14.095 bq            1 LIG        0.145980
     33 H4           -8.909      8.154    -11.835 bs            1 LIG        0.286486
     34 H5           -8.090     10.551     -7.605 bt            1 LIG        0.036352
     35 H6           -7.463      8.941     -7.506 bu            1 LIG        0.036352
     36 H7           -6.766     12.318     -6.908 bv            1 LIG        0.139033
     37 H8           -2.623      9.712     -8.053 bw            1 LIG        0.135666
     38 H9           -4.903      8.797     -8.485 bx            1 LIG        0.142018
     39 H10          -4.642     14.389     -5.995 by            1 LIG        0.143862
     40 H11          -0.370     12.957     -6.606 bz            1 LIG        0.101418
     41 H12          -0.666     11.928     -8.002 cb            1 LIG        0.101418
     42 H13          -0.704     11.225     -6.385 ci            1 LIG        0.101418
     43 H14          -3.941     12.548     -9.781 cj            1 LIG        0.075608
     44 H15          -3.893     11.603    -11.322 ck            1 LIG        0.075608
     45 H16          -2.120     14.815     -9.920 cm            1 LIG        0.055916
     46 H17          -1.320     14.872    -11.477 cn            1 LIG        0.055916
     47 H18          -3.322     15.209    -12.632 ct            1 LIG        0.077483
     48 H19          -3.961     15.728    -11.039 cw            1 LIG        0.077483
@<TRIPOS>BOND
        1  1  2  2
        2  1  4  1
        3  1  12  1
        4  2  6  1
        5  2  30  1
        6  3  4  2
        7  3  5  1
        8  3  31  1
        9  4  32  1
        10  5  6  2
        11  5  9  1
        12  6  7  1
        13  7  8  2
        14  7  10  1
        15  8  9  1
        16  9  33  1
        17  10  14  1
        18  10  34  1
        19  10  35  1
        20  11  12  1
        21  11  24  1
        22  11  27  1
        23  12  13  2
        24  14  15  2
        25  14  19  1
        26  15  16  1
        27  15  36  1
        28  16  17  2
        29  16  20  1
        30  17  18  1
        31  17  22  1
        32  18  19  2
        33  18  37  1
        34  19  38  1
        35  20  21  2
        36  20  39  1
        37  21  22  1
        38  22  23  1
        39  23  40  1
        40  23  41  1
        41  23  42  1
        42  24  25  1
        43  24  43  1
        44  24  44  1
        45  25  26  1
        46  25  28  1
        47  25  29  1
        48  26  27  1
        49  26  45  1
        50  26  46  1
        51  27  47  1
        52  27  48  1
@<TRIPOS>SUBSTRUCTURE
       1 LIG             1 RESIDUE    0 **** ROOT      0
