@<TRIPOS>MOLECULE
LIG
37 39
SMALL
USER_CHARGES
@<TRIPOS>ATOM
      1 O1           27.574      1.558    -11.220 aa            1 LIG       -0.710422
      2 C1           27.148      0.299    -11.669 ab            1 LIG        0.219507
      3 C2           26.527      0.413    -13.069 ad            1 LIG       -0.037694
      4 C3           25.026      0.596    -12.833 ae            1 LIG        0.001683
      5 C4           24.810     -0.058    -11.496 af            1 LIG       -0.023317
      6 C5           26.018     -0.230    -10.814 ah            1 LIG       -0.027962
      7 C6           26.020     -0.770     -9.514 ai            1 LIG       -0.021264
      8 C7           24.803     -1.088     -8.901 aj            1 LIG       -0.194462
      9 C8           23.601     -0.939     -9.596 ak            1 LIG       -0.208946
     10 C9           23.604     -0.437    -10.900 an            1 LIG        0.216574
     11 O2           22.483     -0.281    -11.691 ao            1 LIG       -0.302693
     12 C10          21.246     -0.570    -11.190 ap            1 LIG        0.274710
     13 C11          20.677     -1.829    -11.401 aq            1 LIG       -0.286373
     14 C12          19.418     -2.111    -10.869 av            1 LIG        0.226621
     15 F1           18.858     -3.321    -11.060 aw            1 LIG       -0.153530
     16 C13          18.735     -1.140    -10.133 ax            1 LIG       -0.274343
     17 C14          19.291      0.122     -9.951 ay            1 LIG        0.169487
     18 Cl1          18.424      1.343     -9.084 az            1 LIG       -0.103197
     19 C15          20.558      0.404    -10.460 bb            1 LIG       -0.271694
     20 S1           27.532     -1.065     -8.587 bc            1 LIG        0.878818
     21 O3           27.228     -2.023     -7.519 bd            1 LIG       -0.535518
     22 O4           28.586     -1.396     -9.546 bf            1 LIG       -0.535518
     23 C16          27.939      0.624     -7.827 bg            1 LIG        0.277295
     24 F2           27.818      1.552     -8.736 bh            1 LIG       -0.176211
     25 F3           27.103      0.811     -6.793 bj            1 LIG       -0.176211
     26 H1           28.358      1.810    -11.728 bk            1 LIG        0.490370
     27 H2           27.979     -0.408    -11.703 bl            1 LIG        0.046663
     28 H3           26.700     -0.529    -13.648 bm            1 LIG        0.047475
     29 H4           26.953      1.202    -13.636 bn            1 LIG        0.047475
     30 H5           24.797      1.678    -12.781 bo            1 LIG        0.051280
     31 H6           24.436      0.172    -13.622 bp            1 LIG        0.051280
     32 H7           24.779     -1.466     -7.891 bq            1 LIG        0.176910
     33 H8           22.681     -1.231     -9.114 bs            1 LIG        0.171763
     34 H9           21.208     -2.585    -11.956 bt            1 LIG        0.182295
     35 H10          17.790     -1.392     -9.697 bu            1 LIG        0.193840
     36 H11          20.998      1.364    -10.258 bv            1 LIG        0.192719
     37 H12          28.968      0.591     -7.458 bw            1 LIG        0.122591
@<TRIPOS>BOND
        1  1  2  1
        2  1  26  1
        3  2  3  1
        4  2  6  1
        5  2  27  1
        6  3  4  1
        7  3  28  1
        8  3  29  1
        9  4  5  1
        10  4  30  1
        11  4  31  1
        12  5  6  2
        13  5  10  1
        14  6  7  1
        15  7  8  2
        16  7  20  1
        17  8  9  1
        18  8  32  1
        19  9  10  2
        20  9  33  1
        21  10  11  1
        22  11  12  1
        23  12  13  2
        24  12  19  1
        25  13  14  1
        26  13  34  1
        27  14  15  1
        28  14  16  2
        29  16  17  1
        30  16  35  1
        31  17  18  1
        32  17  19  2
        33  19  36  1
        34  20  21  2
        35  20  22  2
        36  20  23  1
        37  23  24  1
        38  23  25  1
        39  23  37  1
@<TRIPOS>SUBSTRUCTURE
       1 LIG             1 RESIDUE    0 **** ROOT      0
