@<TRIPOS>MOLECULE
LIG
45 48
SMALL
USER_CHARGES
@<TRIPOS>ATOM
      1 C1           -6.351     12.353    -11.981 aa            1 LIG        0.200426
      2 C2           -6.508     11.791    -10.725 ab            1 LIG       -0.264201
      3 C3           -7.680     10.572    -13.044 ad            1 LIG       -0.205510
      4 C4           -6.930     11.766    -13.124 ae            1 LIG       -0.209324
      5 C5           -7.798     10.004    -11.767 af            1 LIG        0.062606
      6 C6           -7.233     10.611    -10.599 ah            1 LIG        0.054653
      7 C7           -7.621      9.738     -9.516 ai            1 LIG        0.100373
      8 N1           -8.275      8.745     -9.997 aj            1 LIG       -0.421142
      9 N2           -8.423      8.880    -11.322 ak            1 LIG       -0.027523
     10 C8           -7.333      9.881     -8.030 an            1 LIG        0.034564
     11 C9           -5.300     14.277    -13.150 ao            1 LIG        0.734425
     12 C10          -4.435     15.526    -12.900 ap            1 LIG       -0.338256
     13 N3           -5.590     13.559    -12.034 aq            1 LIG       -0.501541
     14 C11          -5.971     10.491     -7.732 av            1 LIG        0.095598
     15 C12          -5.862     11.763     -7.168 aw            1 LIG       -0.193100
     16 C13          -4.605     12.313     -6.918 ax            1 LIG       -0.194750
     17 C14          -3.454     11.595     -7.229 ay            1 LIG        0.105566
     18 C15          -3.563     10.313     -7.801 az            1 LIG       -0.194750
     19 C16          -4.816      9.771     -8.043 bb            1 LIG       -0.193100
     20 C17          -2.108     12.174     -6.969 bc            1 LIG        0.035826
     21 C18          -1.750     13.425     -6.486 bd            1 LIG       -0.193147
     22 N4           -0.413     13.467     -6.419 bf            1 LIG        0.225149
     23 N5            0.176     12.373     -6.806 bg            1 LIG       -0.440404
     24 C19          -0.809     11.562     -7.179 bh            1 LIG       -0.016197
     25 C20           0.406     14.570     -5.990 bj            1 LIG       -0.203291
     26 O1           -5.653     14.007    -14.275 bk            1 LIG       -0.609843
     27 H1           -6.062     12.258     -9.861 bl            1 LIG        0.190043
     28 H2           -8.117     10.117    -13.916 bm            1 LIG        0.138058
     29 H3           -6.826     12.201    -14.096 bn            1 LIG        0.135538
     30 H4           -8.943      8.190    -11.847 bo            1 LIG        0.280272
     31 H5           -8.099     10.539     -7.583 bp            1 LIG        0.037654
     32 H6           -7.425      8.930     -7.516 bq            1 LIG        0.037654
     33 H7           -4.182     15.608    -11.842 bs            1 LIG        0.098010
     34 H8           -4.991     16.410    -13.190 bt            1 LIG        0.098010
     35 H9           -3.494     15.484    -13.427 bu            1 LIG        0.098010
     36 H10          -5.220     13.887    -11.144 bv            1 LIG        0.297050
     37 H11          -6.753     12.321     -6.923 bw            1 LIG        0.136150
     38 H12          -4.531     13.297     -6.479 bx            1 LIG        0.135074
     39 H13          -2.673      9.753     -8.037 by            1 LIG        0.135074
     40 H14          -4.895      8.783     -8.485 bz            1 LIG        0.136150
     41 H15          -2.345     14.275     -6.181 cb            1 LIG        0.149475
     42 H16          -0.619     10.573     -7.559 ci            1 LIG        0.142350
     43 H17          -0.206     15.426     -5.700 cj            1 LIG        0.104107
     44 H18           1.075     14.870     -6.806 ck            1 LIG        0.104107
     45 H19           1.020     14.259     -5.133 cm            1 LIG        0.104107
@<TRIPOS>BOND
        1  1  2  2
        2  1  4  1
        3  1  13  1
        4  2  6  1
        5  2  27  1
        6  3  4  2
        7  3  5  1
        8  3  28  1
        9  4  29  1
        10  5  6  2
        11  5  9  1
        12  6  7  1
        13  7  8  2
        14  7  10  1
        15  8  9  1
        16  9  30  1
        17  10  14  1
        18  10  31  1
        19  10  32  1
        20  11  12  1
        21  11  13  1
        22  11  26  2
        23  12  33  1
        24  12  34  1
        25  12  35  1
        26  13  36  1
        27  14  15  2
        28  14  19  1
        29  15  16  1
        30  15  37  1
        31  16  17  2
        32  16  38  1
        33  17  18  1
        34  17  20  1
        35  18  19  2
        36  18  39  1
        37  19  40  1
        38  20  21  2
        39  20  24  1
        40  21  22  1
        41  21  41  1
        42  22  23  1
        43  22  25  1
        44  23  24  2
        45  24  42  1
        46  25  43  1
        47  25  44  1
        48  25  45  1
@<TRIPOS>SUBSTRUCTURE
       1 LIG             1 RESIDUE    0 **** ROOT      0
