@<TRIPOS>MOLECULE
LIG
52 55
SMALL
USER_CHARGES
@<TRIPOS>ATOM
      1 O1           14.940     -6.574      8.829 aa            1 LIG       -0.654875
      2 C1           14.528     -5.235      8.699 ab            1 LIG        0.229010
      3 C2           15.297     -4.643      7.529 ad            1 LIG        0.122349
      4 N1           14.260     -3.948      6.660 ae            1 LIG       -0.209246
      5 C3           14.723     -3.047      5.524 af            1 LIG        0.113842
      6 C4           14.901     -3.786      4.186 ah            1 LIG        0.249264
      7 C5           15.079     -5.325      4.242 ai            1 LIG       -0.071248
      8 C6           15.212     -5.908      2.828 aj            1 LIG       -0.060421
      9 C7           14.092     -5.409      1.885 ak            1 LIG        0.045043
     10 C8           12.700     -6.067      2.130 an            1 LIG        0.120825
     11 C9           12.751     -7.589      2.032 ao            1 LIG        0.071507
     12 C10          13.240     -8.201      0.873 ap            1 LIG       -0.194056
     13 C11          13.315     -9.587      0.791 aq            1 LIG       -0.133678
     14 C12          12.899    -10.362      1.869 av            1 LIG       -0.133388
     15 C13          12.395     -9.762      3.019 aw            1 LIG       -0.133678
     16 C14          12.319     -8.374      3.102 ax            1 LIG       -0.194056
     17 N2           11.709     -5.511      1.208 ay            1 LIG       -0.556679
     18 C15          11.789     -4.171      0.785 az            1 LIG        0.157471
     19 C16          10.785     -3.683     -0.044 bb            1 LIG        0.145751
     20 F1            9.742     -4.458     -0.341 bc            1 LIG       -0.164126
     21 C17          10.818     -2.394     -0.545 bd            1 LIG       -0.267603
     22 C18          11.863     -1.557     -0.186 bf            1 LIG        0.152339
     23 Cl1          11.918      0.045     -0.814 bg            1 LIG       -0.124997
     24 C19          12.858     -2.019      0.676 bh            1 LIG       -0.258186
     25 C20          12.866     -3.341      1.137 bj            1 LIG       -0.026515
     26 C21          14.010     -3.868      1.986 bk            1 LIG        0.274789
     27 O2           13.803     -3.459      3.337 bl            1 LIG       -0.476871
     28 H1           14.762     -6.896      9.717 bm            1 LIG        0.431120
     29 H2           13.444     -5.192      8.539 bn            1 LIG        0.044280
     30 H3           14.770     -4.658      9.590 bo            1 LIG        0.044280
     31 H4           16.006     -3.877      7.840 bp            1 LIG        0.061027
     32 H5           15.757     -5.401      6.899 bq            1 LIG        0.061027
     33 H6           13.695     -4.676      6.250 bs            1 LIG        0.257517
     34 H7           13.899     -2.335      5.486 bt            1 LIG        0.062631
     35 H8           15.626     -2.553      5.873 bu            1 LIG        0.062631
     36 H9           15.794     -3.345      3.748 bv            1 LIG        0.025244
     37 H10          15.969     -5.585      4.813 bw            1 LIG        0.031338
     38 H11          14.234     -5.791      4.749 bx            1 LIG        0.031338
     39 H12          16.179     -5.611      2.414 by            1 LIG        0.033373
     40 H13          15.236     -6.996      2.874 bz            1 LIG        0.033373
     41 H14          14.399     -5.624      0.862 cb            1 LIG        0.015195
     42 H15          12.371     -5.821      3.142 ci            1 LIG        0.044779
     43 H16          13.552     -7.602      0.030 cj            1 LIG        0.140184
     44 H17          13.684    -10.058     -0.107 ck            1 LIG        0.151060
     45 H18          12.957    -11.439      1.808 cm            1 LIG        0.152532
     46 H19          12.063    -10.371      3.849 cn            1 LIG        0.151060
     47 H20          11.928     -7.907      3.994 ct            1 LIG        0.140184
     48 H21          10.816     -5.991      1.161 cw            1 LIG        0.354473
     49 H22          10.025     -2.047     -1.189 da            1 LIG        0.194357
     50 H23          13.649     -1.353      0.976 db            1 LIG        0.180281
     51 H24          14.941     -3.431      1.617 dc            1 LIG        0.016629
     52 H25          13.721     -3.372      7.290 dd            1 LIG        0.257517
@<TRIPOS>BOND
        1  1  2  1
        2  1  28  1
        3  2  3  1
        4  2  29  1
        5  2  30  1
        6  3  4  1
        7  3  31  1
        8  3  32  1
        9  4  5  1
        10  4  33  1
        11  4  52  1
        12  5  6  1
        13  5  34  1
        14  5  35  1
        15  6  7  1
        16  6  27  1
        17  6  36  1
        18  7  8  1
        19  7  37  1
        20  7  38  1
        21  8  9  1
        22  8  39  1
        23  8  40  1
        24  9  10  1
        25  9  26  1
        26  9  41  1
        27  10  11  1
        28  10  17  1
        29  10  42  1
        30  11  12  2
        31  11  16  1
        32  12  13  1
        33  12  43  1
        34  13  14  2
        35  13  44  1
        36  14  15  1
        37  14  45  1
        38  15  16  2
        39  15  46  1
        40  16  47  1
        41  17  18  1
        42  17  48  1
        43  18  19  2
        44  18  25  1
        45  19  20  1
        46  19  21  1
        47  21  22  2
        48  21  49  1
        49  22  23  1
        50  22  24  1
        51  24  25  2
        52  24  50  1
        53  25  26  1
        54  26  27  1
        55  26  51  1
@<TRIPOS>SUBSTRUCTURE
       1 LIG             1 RESIDUE    0 **** ROOT      0
