@<TRIPOS>MOLECULE
LIG
46 49
SMALL
USER_CHARGES
@<TRIPOS>ATOM
      1 C1          -14.744    -14.549    -27.640 aa            1 LIG        0.165391
      2 C2          -15.222    -15.411    -26.640 ab            1 LIG        0.170930
      3 C3          -14.859    -13.169    -27.475 ad            1 LIG       -0.270782
      4 C4          -15.858    -14.874    -25.509 ae            1 LIG       -0.049560
      5 N1          -15.052    -16.804    -26.773 af            1 LIG       -0.482165
      6 C5          -15.463    -12.641    -26.335 ah            1 LIG        0.228005
      7 C6          -15.978    -13.488    -25.351 ai            1 LIG       -0.252088
      8 C7          -16.407    -15.832    -24.472 aj            1 LIG        0.603578
      9 N2          -16.182    -17.133    -24.809 ak            1 LIG       -0.399490
     10 O1          -17.014    -15.519    -23.445 an            1 LIG       -0.571591
     11 C8          -15.496    -17.648    -25.899 ao            1 LIG        0.332553
     12 C9          -15.332    -19.120    -26.040 ap            1 LIG        0.107288
     13 C10         -15.840    -19.977    -25.051 aq            1 LIG       -0.183311
     14 C11         -15.672    -21.356    -25.143 av            1 LIG       -0.192637
     15 C12         -15.004    -21.923    -26.234 aw            1 LIG        0.062572
     16 C13         -14.517    -21.075    -27.235 ax            1 LIG       -0.192637
     17 C14         -14.670    -19.692    -27.137 ay            1 LIG       -0.183311
     18 F1          -14.158    -15.020    -28.761 az            1 LIG       -0.137548
     19 F2          -15.548    -11.299    -26.197 bb            1 LIG       -0.141793
     20 C15         -14.710    -23.415    -26.294 bc            1 LIG        0.098399
     21 C16         -15.953    -24.191    -26.747 bd            1 LIG       -0.073562
     22 C17         -15.634    -25.686    -26.926 bf            1 LIG       -0.003543
     23 N3          -14.552    -25.852    -27.902 bg            1 LIG       -0.086580
     24 C18         -13.324    -25.212    -27.417 bh            1 LIG       -0.003543
     25 C19         -13.550    -23.698    -27.258 bj            1 LIG       -0.073562
     26 C20         -14.300    -27.288    -28.103 bk            1 LIG       -0.293418
     27 H1          -14.471    -12.505    -28.234 bl            1 LIG        0.202808
     28 H2          -16.456    -13.065    -24.476 bm            1 LIG        0.207777
     29 H3          -16.641    -17.785    -24.187 bn            1 LIG        0.331903
     30 H4          -16.348    -19.578    -24.185 bo            1 LIG        0.174373
     31 H5          -16.041    -21.966    -24.333 bp            1 LIG        0.148771
     32 H6          -13.985    -21.482    -28.084 bq            1 LIG        0.148771
     33 H7          -14.260    -19.078    -27.926 bs            1 LIG        0.174373
     34 H8          -14.433    -23.721    -25.285 bt            1 LIG        0.018369
     35 H9          -16.754    -24.068    -26.017 bu            1 LIG        0.058047
     36 H10         -16.329    -23.778    -27.683 bv            1 LIG        0.058047
     37 H11         -16.528    -26.206    -27.270 bw            1 LIG        0.098266
     38 H12         -15.360    -26.129    -25.969 bx            1 LIG        0.098266
     39 H13         -12.512    -25.382    -28.124 by            1 LIG        0.098266
     40 H14         -13.013    -25.648    -26.468 bz            1 LIG        0.098266
     41 H15         -12.640    -23.224    -26.891 cb            1 LIG        0.058047
     42 H16         -13.757    -23.250    -28.230 ci            1 LIG        0.058047
     43 H17         -15.234    -27.748    -28.426 cj            1 LIG        0.163555
     44 H18         -13.958    -27.728    -27.167 ck            1 LIG        0.163555
     45 H19         -13.543    -27.387    -28.882 cm            1 LIG        0.163555
     46 H20         -14.825    -25.421    -28.773 cn            1 LIG        0.299343
@<TRIPOS>BOND
        1  1  2  2
        2  1  3  1
        3  1  18  1
        4  2  4  1
        5  2  5  1
        6  3  6  2
        7  3  27  1
        8  4  7  2
        9  4  8  1
        10  5  11  2
        11  6  7  1
        12  6  19  1
        13  7  28  1
        14  8  9  1
        15  8  10  2
        16  9  11  1
        17  9  29  1
        18  11  12  1
        19  12  13  2
        20  12  17  1
        21  13  14  1
        22  13  30  1
        23  14  15  2
        24  14  31  1
        25  15  16  1
        26  15  20  1
        27  16  17  2
        28  16  32  1
        29  17  33  1
        30  20  21  1
        31  20  25  1
        32  20  34  1
        33  21  22  1
        34  21  35  1
        35  21  36  1
        36  22  23  1
        37  22  37  1
        38  22  38  1
        39  23  24  1
        40  23  26  1
        41  23  46  1
        42  24  25  1
        43  24  39  1
        44  24  40  1
        45  25  41  1
        46  25  42  1
        47  26  43  1
        48  26  44  1
        49  26  45  1
@<TRIPOS>SUBSTRUCTURE
       1 LIG             1 RESIDUE    0 **** ROOT      0
