@<TRIPOS>MOLECULE
LIG
47 50
SMALL
USER_CHARGES
@<TRIPOS>ATOM
      1 N1           24.551     41.400      2.933 aa            1 LIG       -0.491380
      2 C1           24.829     42.588      2.098 ab            1 LIG        0.062234
      3 C2           25.901     43.487      2.736 ad            1 LIG       -0.133991
      4 C3           27.203     42.713      3.021 ae            1 LIG        0.649509
      5 C4           26.890     41.408      3.780 af            1 LIG       -0.133991
      6 C5           25.770     40.586      3.107 ah            1 LIG        0.062234
      7 C6           19.679     40.510      5.502 ai            1 LIG       -0.088384
      8 C7           18.619     40.039      4.720 aj            1 LIG        0.022849
      9 C8           17.322     39.789      5.269 ak            1 LIG        0.072894
     10 C9           17.098     40.047      6.617 an            1 LIG       -0.191982
     11 C10          18.137     40.548      7.375 ao            1 LIG       -0.145691
     12 C11          19.409     40.739      6.849 ap            1 LIG       -0.172968
     13 C12          21.020     40.730      4.935 aq            1 LIG        0.307348
     14 N2           21.064     41.768      4.071 av            1 LIG       -0.536671
     15 C13          22.239     42.009      3.449 aw            1 LIG        0.121430
     16 C14          23.372     41.230      3.671 ax            1 LIG        0.517418
     17 N3           23.325     40.199      4.569 ay            1 LIG       -0.635815
     18 C15          22.149     39.958      5.205 az            1 LIG        0.527702
     19 N4           22.131     38.899      6.115 bb            1 LIG       -0.963620
     20 N5           28.074     43.601      3.917 bc            1 LIG       -0.985012
     21 C16          27.982     42.432      1.723 bd            1 LIG       -0.387944
     22 C17          16.508     39.306      4.214 bf            1 LIG       -0.216579
     23 C18          17.288     39.312      3.102 bg            1 LIG       -0.131175
     24 N6           18.561     39.727      3.396 bh            1 LIG       -0.195787
     25 H1           25.102     42.275      1.089 bj            1 LIG        0.075839
     26 H2           23.965     43.225      1.948 bk            1 LIG        0.075839
     27 H3           25.477     43.941      3.633 bl            1 LIG        0.041839
     28 H4           26.094     44.334      2.074 bm            1 LIG        0.041839
     29 H5           26.566     41.617      4.792 bn            1 LIG        0.041839
     30 H6           27.787     40.800      3.888 bo            1 LIG        0.041839
     31 H7           26.103     40.201      2.141 bp            1 LIG        0.075839
     32 H8           25.583     39.692      3.704 bq            1 LIG        0.075839
     33 H9           16.126     39.863      7.048 bs            1 LIG        0.146969
     34 H10          17.937     40.798      8.390 bt            1 LIG        0.143384
     35 H11          20.203     41.075      7.496 bu            1 LIG        0.152974
     36 H12          22.183     42.821      2.743 bv            1 LIG        0.040902
     37 H13          21.281     38.692      6.617 bw            1 LIG        0.412423
     38 H14          22.987     38.383      6.293 bx            1 LIG        0.412423
     39 H15          28.944     43.133      4.137 by            1 LIG        0.453595
     40 H16          28.276     44.461      3.408 bz            1 LIG        0.453595
     41 H17          27.427     41.770      1.058 cb            1 LIG        0.113373
     42 H18          28.940     41.953      1.931 ci            1 LIG        0.113373
     43 H19          28.174     43.353      1.171 cj            1 LIG        0.113373
     44 H20          15.457     39.051      4.258 ck            1 LIG        0.151556
     45 H21          17.085     39.131      2.066 cm            1 LIG        0.151085
     46 H22          19.279     39.821      2.694 cn            1 LIG        0.284044
     47 H23          27.603     43.850      4.776 ct            1 LIG        0.453595
@<TRIPOS>BOND
        1  1  2  1
        2  1  6  1
        3  1  16  1
        4  2  3  1
        5  2  25  1
        6  2  26  1
        7  3  4  1
        8  3  27  1
        9  3  28  1
        10  4  5  1
        11  4  20  1
        12  4  21  1
        13  5  6  1
        14  5  29  1
        15  5  30  1
        16  6  31  1
        17  6  32  1
        18  7  8  2
        19  7  12  1
        20  7  13  1
        21  8  9  1
        22  8  24  1
        23  9  10  2
        24  9  22  1
        25  10  11  1
        26  10  33  1
        27  11  12  2
        28  11  34  1
        29  12  35  1
        30  13  14  2
        31  13  18  1
        32  14  15  1
        33  15  16  2
        34  15  36  1
        35  16  17  1
        36  17  18  2
        37  18  19  1
        38  19  37  1
        39  19  38  1
        40  20  39  1
        41  20  40  1
        42  20  47  1
        43  21  41  1
        44  21  42  1
        45  21  43  1
        46  22  23  2
        47  22  44  1
        48  23  24  1
        49  23  45  1
        50  24  46  1
@<TRIPOS>SUBSTRUCTURE
       1 LIG             1 RESIDUE    0 **** ROOT      0
