@<TRIPOS>MOLECULE
LIG
37 39
SMALL
USER_CHARGES
@<TRIPOS>ATOM
      1 C1          -14.309    -14.792    -27.478 aa            1 LIG       -0.195991
      2 C2          -15.017    -15.590    -26.580 ab            1 LIG        0.232743
      3 C3          -14.421    -13.409    -27.383 ad            1 LIG       -0.199485
      4 C4          -15.860    -15.020    -25.617 ae            1 LIG       -0.053354
      5 N1          -14.857    -16.968    -26.664 af            1 LIG       -0.492813
      6 C5          -15.247    -12.849    -26.411 ah            1 LIG        0.218906
      7 C6          -15.978    -13.637    -25.526 ai            1 LIG       -0.247238
      8 F1          -15.350    -11.522    -26.337 aj            1 LIG       -0.167196
      9 C7          -16.634    -15.944    -24.701 ak            1 LIG        0.631726
     10 N2          -16.338    -17.249    -24.938 an            1 LIG       -0.409250
     11 O1          -17.460    -15.605    -23.852 ao            1 LIG       -0.626650
     12 C8          -15.481    -17.782    -25.884 ap            1 LIG        0.332799
     13 C9          -15.328    -19.237    -26.013 aq            1 LIG        0.100849
     14 C10         -15.717    -20.115    -24.995 av            1 LIG       -0.185684
     15 C11         -15.505    -21.479    -25.143 aw            1 LIG       -0.188889
     16 C12         -14.917    -21.978    -26.312 ax            1 LIG        0.047997
     17 C13         -14.560    -21.108    -27.335 ay            1 LIG       -0.188889
     18 C14         -14.765    -19.751    -27.188 az            1 LIG       -0.185684
     19 C15         -14.572    -23.457    -26.418 bb            1 LIG        0.478062
     20 O2          -14.230    -23.896    -27.706 bc            1 LIG       -0.727028
     21 C16         -15.774    -24.338    -26.101 bd            1 LIG       -0.308613
     22 C17         -13.336    -23.702    -25.560 bf            1 LIG       -0.308613
     23 H1          -13.667    -15.237    -28.225 bg            1 LIG        0.175053
     24 H2          -13.869    -12.766    -28.055 bh            1 LIG        0.173386
     25 H3          -16.618    -13.171    -24.790 bj            1 LIG        0.191985
     26 H4          -16.899    -17.893    -24.396 bk            1 LIG        0.325709
     27 H5          -16.159    -19.762    -24.073 bl            1 LIG        0.157360
     28 H6          -15.766    -22.139    -24.329 bm            1 LIG        0.153011
     29 H7          -14.086    -21.471    -28.235 bn            1 LIG        0.153011
     30 H8          -14.461    -19.105    -28.001 bo            1 LIG        0.157360
     31 H9          -14.025    -24.837    -27.663 bp            1 LIG        0.461994
     32 H10         -16.669    -23.968    -26.603 bq            1 LIG        0.082237
     33 H11         -15.959    -24.356    -25.029 bs            1 LIG        0.082237
     34 H12         -15.639    -25.382    -26.393 bt            1 LIG        0.082237
     35 H13         -12.523    -23.040    -25.850 bu            1 LIG        0.082237
     36 H14         -12.985    -24.724    -25.673 bv            1 LIG        0.082237
     37 H15         -13.534    -23.535    -24.499 bw            1 LIG        0.082237
@<TRIPOS>BOND
        1  1  2  2
        2  1  3  1
        3  1  23  1
        4  2  4  1
        5  2  5  1
        6  3  6  2
        7  3  24  1
        8  4  7  2
        9  4  9  1
        10  5  12  2
        11  6  7  1
        12  6  8  1
        13  7  25  1
        14  9  10  1
        15  9  11  2
        16  10  12  1
        17  10  26  1
        18  12  13  1
        19  13  14  2
        20  13  18  1
        21  14  15  1
        22  14  27  1
        23  15  16  2
        24  15  28  1
        25  16  17  1
        26  16  19  1
        27  17  18  2
        28  17  29  1
        29  18  30  1
        30  19  20  1
        31  19  21  1
        32  19  22  1
        33  20  31  1
        34  21  32  1
        35  21  33  1
        36  21  34  1
        37  22  35  1
        38  22  36  1
        39  22  37  1
@<TRIPOS>SUBSTRUCTURE
       1 LIG             1 RESIDUE    0 **** ROOT      0
