@<TRIPOS>MOLECULE
LIG
33 35
SMALL
USER_CHARGES
@<TRIPOS>ATOM
      1 C1           27.152      0.253    -11.680 aa            1 LIG        0.140139
      2 O1           26.513      0.743    -12.841 ab            1 LIG       -0.403307
      3 C2           25.176      0.627    -12.760 ad            1 LIG        0.726252
      4 C3           24.850     -0.031    -11.477 ae            1 LIG       -0.114778
      5 C4           26.034     -0.222    -10.797 af            1 LIG       -0.016879
      6 C5           26.024     -0.769     -9.508 ah            1 LIG       -0.020518
      7 C6           24.804     -1.094     -8.913 ai            1 LIG       -0.178493
      8 C7           23.614     -0.933     -9.614 aj            1 LIG       -0.198260
      9 C8           23.619     -0.416    -10.919 ak            1 LIG        0.242312
     10 O2           22.485     -0.256    -11.686 an            1 LIG       -0.287072
     11 C9           21.242     -0.559    -11.173 ao            1 LIG        0.284108
     12 C10          20.676     -1.812    -11.395 ap            1 LIG       -0.268294
     13 C11          19.421     -2.106    -10.871 aq            1 LIG        0.234027
     14 F1           18.853     -3.305    -11.091 av            1 LIG       -0.148466
     15 C12          18.739     -1.158    -10.119 aw            1 LIG       -0.268778
     16 C13          19.285      0.106     -9.918 ax            1 LIG        0.171710
     17 Cl1          18.408      1.313     -9.052 ay            1 LIG       -0.105295
     18 C14          20.543      0.398    -10.439 az            1 LIG       -0.271868
     19 S1           27.537     -1.062     -8.607 bb            1 LIG        0.849494
     20 O3           27.240     -2.006     -7.521 bc            1 LIG       -0.515203
     21 O4           28.563     -1.405     -9.588 bd            1 LIG       -0.515203
     22 C15          27.965      0.618     -7.873 bf            1 LIG        0.278062
     23 F2           27.864      1.544     -8.822 bg            1 LIG       -0.175822
     24 F3           27.126      0.872     -6.870 bh            1 LIG       -0.175822
     25 O5           24.444      1.044    -13.642 bj            1 LIG       -0.566444
     26 H1           27.735      1.061    -11.234 bk            1 LIG        0.109541
     27 H2           27.849     -0.545    -11.945 bl            1 LIG        0.109541
     28 H3           24.781     -1.492     -7.907 bm            1 LIG        0.196848
     29 H4           22.687     -1.224     -9.136 bn            1 LIG        0.199098
     30 H5           21.208     -2.572    -11.946 bo            1 LIG        0.197959
     31 H6           17.803     -1.433     -9.685 bp            1 LIG        0.195762
     32 H7           20.978      1.367    -10.262 bq            1 LIG        0.169502
     33 H8           28.989      0.550     -7.541 bs            1 LIG        0.126147
@<TRIPOS>BOND
        1  1  2  1
        2  1  5  1
        3  1  26  1
        4  1  27  1
        5  2  3  1
        6  3  4  1
        7  3  25  2
        8  4  5  2
        9  4  9  1
        10  5  6  1
        11  6  7  2
        12  6  19  1
        13  7  8  1
        14  7  28  1
        15  8  9  2
        16  8  29  1
        17  9  10  1
        18  10  11  1
        19  11  12  2
        20  11  18  1
        21  12  13  1
        22  12  30  1
        23  13  14  1
        24  13  15  2
        25  15  16  1
        26  15  31  1
        27  16  17  1
        28  16  18  2
        29  18  32  1
        30  19  20  2
        31  19  21  2
        32  19  22  1
        33  22  23  1
        34  22  24  1
        35  22  33  1
@<TRIPOS>SUBSTRUCTURE
       1 LIG             1 RESIDUE    0 **** ROOT      0
