@<TRIPOS>MOLECULE
LIG
47 49
SMALL
USER_CHARGES
@<TRIPOS>ATOM
      1 N1           24.724     41.261      2.635 aa            1 LIG       -0.497203
      2 C1           25.833     40.294      2.670 ab            1 LIG        0.054211
      3 C2           26.970     40.843      3.553 ad            1 LIG       -0.140453
      4 C3           27.451     42.267      3.141 ae            1 LIG        0.774862
      5 C4           26.324     43.154      2.508 af            1 LIG       -0.140453
      6 C5           25.161     42.403      1.820 ah            1 LIG        0.054211
      7 C6           20.083     40.684      5.774 ai            1 LIG        0.017302
      8 C7           20.039     40.834      7.177 aj            1 LIG        0.040955
      9 C8           18.830     40.703      7.869 ak            1 LIG        0.104984
     10 C9           17.682     40.391      7.194 an            1 LIG       -0.284311
     11 C10          17.694     40.219      5.813 ao            1 LIG        0.268137
     12 C11          18.886     40.385      5.113 ap            1 LIG       -0.263128
     13 C12          21.324     40.834      4.948 aq            1 LIG       -0.125089
     14 C13          21.346     41.838      4.027 av            1 LIG        0.223606
     15 N2           22.482     42.024      3.303 aw            1 LIG       -0.631172
     16 C14          23.628     41.233      3.497 ax            1 LIG        0.789685
     17 N3           23.592     40.224      4.404 ay            1 LIG       -0.655865
     18 C15          22.460     40.020      5.118 az            1 LIG        0.612554
     19 Cl1          18.669     40.796      9.576 bb            1 LIG       -0.100513
     20 Cl2          21.461     41.042      8.115 bc            1 LIG       -0.086822
     21 N4           22.473     38.928      5.970 bd            1 LIG       -0.956284
     22 C16          28.486     42.019      2.028 bf            1 LIG       -0.390860
     23 N5           28.147     42.971      4.229 bg            1 LIG       -1.270207
     24 H1           25.508     39.320      3.031 bh            1 LIG        0.071997
     25 H2           26.199     40.116      1.656 bj            1 LIG        0.071997
     26 H3           27.795     40.126      3.550 bk            1 LIG        0.061903
     27 H4           26.625     40.838      4.593 bl            1 LIG        0.061903
     28 H5           26.735     43.865      1.786 bm            1 LIG        0.061903
     29 H6           25.891     43.798      3.277 bn            1 LIG        0.061903
     30 H7           24.329     43.080      1.622 bo            1 LIG        0.071997
     31 H8           25.481     42.066      0.831 bp            1 LIG        0.071997
     32 H9           16.792     40.279      7.794 bq            1 LIG        0.182876
     33 O1           16.563     39.918      5.109 bs            1 LIG       -0.346168
     34 H10          18.872     40.268      4.041 bt            1 LIG        0.184156
     35 H11          23.339     38.422      6.149 bu            1 LIG        0.415063
     36 H12          21.643     38.702      6.499 bv            1 LIG        0.415063
     37 C17          15.347     39.894      5.834 bw            1 LIG        0.058050
     38 H13          14.526     39.932      5.146 bx            1 LIG        0.065001
     39 H14          15.222     40.780      6.438 by            1 LIG        0.065001
     40 H15          15.262     39.000      6.456 bz            1 LIG        0.065001
     41 H16          28.993     42.870      1.549 cb            1 LIG        0.110309
     42 H17          28.034     41.396      1.256 ci            1 LIG        0.110309
     43 H18          29.237     41.319      2.393 cj            1 LIG        0.110309
     44 H19          28.435     43.885      3.908 ck            1 LIG        0.506109
     45 H20          27.524     43.073      5.017 cm            1 LIG        0.506109
     46 H21          28.959     42.441      4.507 cn            1 LIG        0.506109
     47 H22          20.476     42.462      3.887 ct            1 LIG        0.112950
@<TRIPOS>BOND
        1  1  2  1
        2  1  6  1
        3  1  16  1
        4  2  3  1
        5  2  24  1
        6  2  25  1
        7  3  4  1
        8  3  26  1
        9  3  27  1
        10  4  5  1
        11  4  22  1
        12  4  23  1
        13  5  6  1
        14  5  28  1
        15  5  29  1
        16  6  30  1
        17  6  31  1
        18  7  8  2
        19  7  12  1
        20  7  13  1
        21  8  9  1
        22  8  20  1
        23  9  10  2
        24  9  19  1
        25  10  11  1
        26  10  32  1
        27  11  12  2
        28  11  33  1
        29  12  34  1
        30  13  14  2
        31  13  18  1
        32  14  15  1
        33  14  47  1
        34  15  16  2
        35  16  17  1
        36  17  18  2
        37  18  21  1
        38  21  35  1
        39  21  36  1
        40  22  41  1
        41  22  42  1
        42  22  43  1
        43  23  44  1
        44  23  45  1
        45  23  46  1
        46  33  37  1
        47  37  38  1
        48  37  39  1
        49  37  40  1
@<TRIPOS>SUBSTRUCTURE
       1 LIG             1 RESIDUE    0 **** ROOT      0
