@<TRIPOS>MOLECULE
LIG
49 53
SMALL
USER_CHARGES
@<TRIPOS>ATOM
      1 C1           -6.369     12.360    -12.009 aa            1 LIG        0.008025
      2 C2           -6.508     11.804    -10.732 ab            1 LIG       -0.229737
      3 C3           -7.729     10.580    -13.027 ad            1 LIG       -0.206037
      4 C4           -6.993     11.772    -13.122 ae            1 LIG       -0.191176
      5 C5           -7.821     10.012    -11.755 af            1 LIG        0.070076
      6 C6           -7.237     10.619    -10.600 ah            1 LIG        0.056909
      7 C7           -7.607      9.746     -9.511 ai            1 LIG        0.100901
      8 N1           -8.282      8.735     -9.986 aj            1 LIG       -0.422709
      9 N2           -8.416      8.863    -11.299 ak            1 LIG       -0.024506
     10 C8           -7.322      9.882     -8.024 an            1 LIG        0.034115
     11 N3           -4.361     13.721    -11.508 ao            1 LIG       -0.344461
     12 C9           -5.549     13.637    -12.198 ap            1 LIG        0.669327
     13 O1           -5.947     14.525    -12.953 aq            1 LIG       -0.628317
     14 C10          -5.951     10.499     -7.728 av            1 LIG        0.085806
     15 C11          -5.880     11.771     -7.154 aw            1 LIG       -0.249803
     16 C12          -4.612     12.315     -6.913 ax            1 LIG        0.058705
     17 C13          -3.441     11.562     -7.244 ay            1 LIG        0.058809
     18 C14          -3.505     10.284     -7.809 az            1 LIG       -0.200737
     19 C15          -4.794      9.779     -8.044 bb            1 LIG       -0.195284
     20 C16          -4.093     13.544     -6.369 bc            1 LIG       -0.015256
     21 N4           -2.789     13.528     -6.376 bd            1 LIG       -0.420128
     22 N5           -2.382     12.369     -6.882 bf            1 LIG        0.198654
     23 C17          -0.953     12.103     -6.986 bg            1 LIG       -0.198266
     24 C18          -3.715     12.576    -10.835 bh            1 LIG        0.024321
     25 C19          -2.207     12.938    -10.956 bj            1 LIG        0.194250
     26 C20          -2.189     14.465    -10.957 bk            1 LIG       -0.037994
     27 C21          -3.517     14.914    -11.600 bl            1 LIG        0.029632
     28 O2           -1.673     12.453    -12.179 bm            1 LIG       -0.703838
     29 H1           -6.071     12.283     -9.870 bn            1 LIG        0.162125
     30 H2           -8.191     10.128    -13.895 bo            1 LIG        0.139911
     31 H3           -6.876     12.235    -14.090 bp            1 LIG        0.147021
     32 H4           -8.910      8.156    -11.835 bq            1 LIG        0.283620
     33 H5           -8.098     10.517     -7.588 bs            1 LIG        0.036976
     34 H6           -7.423      8.922     -7.516 bt            1 LIG        0.036976
     35 H7           -6.776     12.319     -6.912 bu            1 LIG        0.139864
     36 H8           -2.615      9.711     -8.049 bv            1 LIG        0.137886
     37 H9           -4.901      8.799     -8.483 bw            1 LIG        0.137104
     38 H10          -4.640     14.393     -5.991 bx            1 LIG        0.143057
     39 H11          -0.373     12.951     -6.610 by            1 LIG        0.102242
     40 H12          -0.684     11.937     -8.029 bz            1 LIG        0.102242
     41 H13          -0.704     11.225     -6.390 cb            1 LIG        0.102242
     42 H14          -3.948     12.559     -9.773 ci            1 LIG        0.077224
     43 H15          -3.890     11.606    -11.314 cj            1 LIG        0.077224
     44 H16          -1.607     12.489    -10.160 ck            1 LIG        0.025145
     45 H17          -2.136     14.816     -9.924 cm            1 LIG        0.027989
     46 H18          -1.318     14.887    -11.468 cn            1 LIG        0.027989
     47 H19          -3.322     15.208    -12.633 ct            1 LIG        0.052429
     48 H20          -3.961     15.734    -11.036 cw            1 LIG        0.052429
     49 H21          -0.809     12.861    -12.339 da            1 LIG        0.467023
@<TRIPOS>BOND
        1  1  2  2
        2  1  4  1
        3  1  12  1
        4  2  6  1
        5  2  29  1
        6  3  4  2
        7  3  5  1
        8  3  30  1
        9  4  31  1
        10  5  6  2
        11  5  9  1
        12  6  7  1
        13  7  8  2
        14  7  10  1
        15  8  9  1
        16  9  32  1
        17  10  14  1
        18  10  33  1
        19  10  34  1
        20  11  12  1
        21  11  24  1
        22  11  27  1
        23  12  13  2
        24  14  15  2
        25  14  19  1
        26  15  16  1
        27  15  35  1
        28  16  17  2
        29  16  20  1
        30  17  18  1
        31  17  22  1
        32  18  19  2
        33  18  36  1
        34  19  37  1
        35  20  21  2
        36  20  38  1
        37  21  22  1
        38  22  23  1
        39  23  39  1
        40  23  40  1
        41  23  41  1
        42  24  25  1
        43  24  42  1
        44  24  43  1
        45  25  26  1
        46  25  28  1
        47  25  44  1
        48  26  27  1
        49  26  45  1
        50  26  46  1
        51  27  47  1
        52  27  48  1
        53  28  49  1
@<TRIPOS>SUBSTRUCTURE
       1 LIG             1 RESIDUE    0 **** ROOT      0
