@<TRIPOS>MOLECULE
LIG
41 43
SMALL
USER_CHARGES
@<TRIPOS>ATOM
      1 C1          -14.632    -14.613    -27.579 aa            1 LIG        0.208415
      2 C2          -15.158    -15.476    -26.599 ab            1 LIG        0.169271
      3 C3          -14.720    -13.226    -27.357 ad            1 LIG       -0.219825
      4 C4          -15.810    -14.953    -25.473 ae            1 LIG       -0.056993
      5 N1          -15.016    -16.873    -26.742 af            1 LIG       -0.481407
      6 C5          -15.334    -12.719    -26.212 ah            1 LIG       -0.138814
      7 C6          -15.898    -13.577    -25.271 ai            1 LIG       -0.190106
      8 C7          -16.412    -15.915    -24.475 aj            1 LIG        0.630284
      9 N2          -16.070    -17.203    -24.742 ak            1 LIG       -0.411445
     10 O1          -17.158    -15.613    -23.545 an            1 LIG       -0.635946
     11 C8          -15.426    -17.716    -25.849 ao            1 LIG        0.327812
     12 C9          -15.267    -19.183    -25.992 ap            1 LIG        0.100690
     13 C10         -14.648    -19.701    -27.138 aq            1 LIG       -0.187517
     14 C11         -14.464    -21.068    -27.290 av            1 LIG       -0.191113
     15 C12         -14.893    -21.959    -26.303 aw            1 LIG        0.041925
     16 C13         -15.532    -21.450    -25.165 ax            1 LIG       -0.191113
     17 C14         -15.722    -20.078    -25.012 ay            1 LIG       -0.187517
     18 C15         -14.581    -23.461    -26.426 az            1 LIG        0.477208
     19 O2          -14.259    -23.883    -27.735 bb            1 LIG       -0.729220
     20 C16         -15.777    -24.354    -26.096 bc            1 LIG       -0.306629
     21 C17         -13.365    -23.781    -25.554 bd            1 LIG       -0.306629
     22 O3          -14.009    -15.161    -28.690 bf            1 LIG       -0.337755
     23 C18         -13.479    -14.296    -29.693 bg            1 LIG        0.062277
     24 H1          -14.304    -12.517    -28.056 bh            1 LIG        0.152527
     25 H2          -15.367    -11.650    -26.066 bj            1 LIG        0.151876
     26 H3          -16.382    -13.181    -24.390 bk            1 LIG        0.170773
     27 H4          -16.512    -17.864    -24.117 bl            1 LIG        0.322819
     28 H5          -14.291    -19.047    -27.923 bm            1 LIG        0.157597
     29 H6          -13.956    -21.429    -28.172 bn            1 LIG        0.157065
     30 H7          -15.861    -22.109    -24.375 bo            1 LIG        0.157065
     31 H8          -16.208    -19.730    -24.112 bp            1 LIG        0.157597
     32 H9          -14.076    -24.829    -27.716 bq            1 LIG        0.461675
     33 H10         -16.635    -24.035    -26.681 bs            1 LIG        0.081547
     34 H11         -16.015    -24.311    -25.035 bt            1 LIG        0.081547
     35 H12         -15.602    -25.403    -26.349 bu            1 LIG        0.081547
     36 H13         -12.497    -23.203    -25.870 bv            1 LIG        0.081547
     37 H14         -13.114    -24.831    -25.626 bw            1 LIG        0.081547
     38 H15         -13.547    -23.558    -24.503 bx            1 LIG        0.081547
     39 H16         -13.097    -14.889    -30.521 by            1 LIG        0.058623
     40 H17         -12.650    -13.692    -29.318 bz            1 LIG        0.058623
     41 H18         -14.248    -13.634    -30.095 cb            1 LIG        0.058623
@<TRIPOS>BOND
        1  1  2  2
        2  1  3  1
        3  1  22  1
        4  2  4  1
        5  2  5  1
        6  3  6  2
        7  3  24  1
        8  4  7  2
        9  4  8  1
        10  5  11  2
        11  6  7  1
        12  6  25  1
        13  7  26  1
        14  8  9  1
        15  8  10  2
        16  9  11  1
        17  9  27  1
        18  11  12  1
        19  12  13  2
        20  12  17  1
        21  13  14  1
        22  13  28  1
        23  14  15  2
        24  14  29  1
        25  15  16  1
        26  15  18  1
        27  16  17  2
        28  16  30  1
        29  17  31  1
        30  18  19  1
        31  18  20  1
        32  18  21  1
        33  19  32  1
        34  20  33  1
        35  20  34  1
        36  20  35  1
        37  21  36  1
        38  21  37  1
        39  21  38  1
        40  22  23  1
        41  23  39  1
        42  23  40  1
        43  23  41  1
@<TRIPOS>SUBSTRUCTURE
       1 LIG             1 RESIDUE    0 **** ROOT      0
